
---------- Begin Simulation Statistics ----------
final_tick                                84722007500                       # Number of ticks from beginning of simulation (restored from checkpoints and never reset)
host_inst_rate                                 380137                       # Simulator instruction rate (inst/s)
host_mem_usage                                 705700                       # Number of bytes of host memory used
host_op_rate                                   380985                       # Simulator op (including micro ops) rate (op/s)
host_seconds                                   263.06                       # Real time elapsed on the host
host_tick_rate                              322059633                       # Simulator tick rate (ticks/s)
sim_freq                                 1000000000000                       # Frequency of simulated ticks
sim_insts                                   100000001                       # Number of instructions simulated
sim_ops                                     100223084                       # Number of ops (including micro ops) simulated
sim_seconds                                  0.084722                       # Number of seconds simulated
sim_ticks                                 84722007500                       # Number of ticks simulated
system.cpu.branchPred.BTBCorrect                    0                       # Number of correct BTB predictions (this stat may not work properly.
system.cpu.branchPred.BTBHitPct             99.738606                       # BTB Hit Percentage
system.cpu.branchPred.BTBHits                 2717886                       # Number of BTB hits
system.cpu.branchPred.BTBLookups              2725009                       # Number of BTB lookups
system.cpu.branchPred.RASInCorrect                  7                       # Number of incorrect RAS predictions.
system.cpu.branchPred.condIncorrect            165796                       # Number of conditional branches incorrect
system.cpu.branchPred.condPredicted           4216278                       # Number of conditional branches predicted
system.cpu.branchPred.indirectHits                268                       # Number of indirect target hits.
system.cpu.branchPred.indirectLookups             652                       # Number of indirect predictor lookups.
system.cpu.branchPred.indirectMisses              384                       # Number of indirect misses.
system.cpu.branchPred.lookups                 5251159                       # Number of BP lookups
system.cpu.branchPred.usedRAS                  119112                       # Number of times the RAS was used to get a target.
system.cpu.branchPredindirectMispredicted          157                       # Number of mispredicted indirect branches.
system.cpu.committedInsts                   100000001                       # Number of instructions committed
system.cpu.committedOps                     100223084                       # Number of ops (including micro ops) committed
system.cpu.cpi                               1.694440                       # CPI: cycles per instruction
system.cpu.discardedOps                        449033                       # Number of ops (including micro ops) which were discarded before commit
system.cpu.dtb.accesses                             0                       # DTB accesses
system.cpu.dtb.align_faults                         0                       # Number of TLB faults due to alignment restrictions
system.cpu.dtb.domain_faults                        0                       # Number of TLB faults due to domain restrictions
system.cpu.dtb.flush_entries                        0                       # Number of entries that have been flushed from TLB
system.cpu.dtb.flush_tlb                            0                       # Number of times complete TLB was flushed
system.cpu.dtb.flush_tlb_asid                       0                       # Number of times TLB was flushed by ASID
system.cpu.dtb.flush_tlb_mva                        0                       # Number of times TLB was flushed by MVA
system.cpu.dtb.flush_tlb_mva_asid                   0                       # Number of times TLB was flushed by MVA & ASID
system.cpu.dtb.hits                                 0                       # DTB hits
system.cpu.dtb.inst_accesses                        0                       # ITB inst accesses
system.cpu.dtb.inst_hits                            0                       # ITB inst hits
system.cpu.dtb.inst_misses                          0                       # ITB inst misses
system.cpu.dtb.misses                               0                       # DTB misses
system.cpu.dtb.perms_faults                         0                       # Number of TLB faults due to permissions restrictions
system.cpu.dtb.prefetch_faults                      0                       # Number of TLB faults due to prefetch
system.cpu.dtb.read_accesses                        0                       # DTB read accesses
system.cpu.dtb.read_hits                            0                       # DTB read hits
system.cpu.dtb.read_misses                          0                       # DTB read misses
system.cpu.dtb.stage2_mmu.stage2_tlb.accesses            0                       # DTB accesses
system.cpu.dtb.stage2_mmu.stage2_tlb.align_faults            0                       # Number of TLB faults due to alignment restrictions
system.cpu.dtb.stage2_mmu.stage2_tlb.domain_faults            0                       # Number of TLB faults due to domain restrictions
system.cpu.dtb.stage2_mmu.stage2_tlb.flush_entries            0                       # Number of entries that have been flushed from TLB
system.cpu.dtb.stage2_mmu.stage2_tlb.flush_tlb            0                       # Number of times complete TLB was flushed
system.cpu.dtb.stage2_mmu.stage2_tlb.flush_tlb_asid            0                       # Number of times TLB was flushed by ASID
system.cpu.dtb.stage2_mmu.stage2_tlb.flush_tlb_mva            0                       # Number of times TLB was flushed by MVA
system.cpu.dtb.stage2_mmu.stage2_tlb.flush_tlb_mva_asid            0                       # Number of times TLB was flushed by MVA & ASID
system.cpu.dtb.stage2_mmu.stage2_tlb.hits            0                       # DTB hits
system.cpu.dtb.stage2_mmu.stage2_tlb.inst_accesses            0                       # ITB inst accesses
system.cpu.dtb.stage2_mmu.stage2_tlb.inst_hits            0                       # ITB inst hits
system.cpu.dtb.stage2_mmu.stage2_tlb.inst_misses            0                       # ITB inst misses
system.cpu.dtb.stage2_mmu.stage2_tlb.misses            0                       # DTB misses
system.cpu.dtb.stage2_mmu.stage2_tlb.perms_faults            0                       # Number of TLB faults due to permissions restrictions
system.cpu.dtb.stage2_mmu.stage2_tlb.prefetch_faults            0                       # Number of TLB faults due to prefetch
system.cpu.dtb.stage2_mmu.stage2_tlb.read_accesses            0                       # DTB read accesses
system.cpu.dtb.stage2_mmu.stage2_tlb.read_hits            0                       # DTB read hits
system.cpu.dtb.stage2_mmu.stage2_tlb.read_misses            0                       # DTB read misses
system.cpu.dtb.stage2_mmu.stage2_tlb.walker.walkRequestOrigin_Requested::Data            0                       # Table walker requests started/completed, data/inst
system.cpu.dtb.stage2_mmu.stage2_tlb.walker.walkRequestOrigin_Requested::Inst            0                       # Table walker requests started/completed, data/inst
system.cpu.dtb.stage2_mmu.stage2_tlb.walker.walkRequestOrigin_Requested::total            0                       # Table walker requests started/completed, data/inst
system.cpu.dtb.stage2_mmu.stage2_tlb.walker.walkRequestOrigin_Completed::Data            0                       # Table walker requests started/completed, data/inst
system.cpu.dtb.stage2_mmu.stage2_tlb.walker.walkRequestOrigin_Completed::Inst            0                       # Table walker requests started/completed, data/inst
system.cpu.dtb.stage2_mmu.stage2_tlb.walker.walkRequestOrigin_Completed::total            0                       # Table walker requests started/completed, data/inst
system.cpu.dtb.stage2_mmu.stage2_tlb.walker.walkRequestOrigin::total            0                       # Table walker requests started/completed, data/inst
system.cpu.dtb.stage2_mmu.stage2_tlb.walker.walks            0                       # Table walker walks requested
system.cpu.dtb.stage2_mmu.stage2_tlb.write_accesses            0                       # DTB write accesses
system.cpu.dtb.stage2_mmu.stage2_tlb.write_hits            0                       # DTB write hits
system.cpu.dtb.stage2_mmu.stage2_tlb.write_misses            0                       # DTB write misses
system.cpu.dtb.walker.walkRequestOrigin_Requested::Data            0                       # Table walker requests started/completed, data/inst
system.cpu.dtb.walker.walkRequestOrigin_Requested::Inst            0                       # Table walker requests started/completed, data/inst
system.cpu.dtb.walker.walkRequestOrigin_Requested::total            0                       # Table walker requests started/completed, data/inst
system.cpu.dtb.walker.walkRequestOrigin_Completed::Data            0                       # Table walker requests started/completed, data/inst
system.cpu.dtb.walker.walkRequestOrigin_Completed::Inst            0                       # Table walker requests started/completed, data/inst
system.cpu.dtb.walker.walkRequestOrigin_Completed::total            0                       # Table walker requests started/completed, data/inst
system.cpu.dtb.walker.walkRequestOrigin::total            0                       # Table walker requests started/completed, data/inst
system.cpu.dtb.walker.walks                         0                       # Table walker walks requested
system.cpu.dtb.write_accesses                       0                       # DTB write accesses
system.cpu.dtb.write_hits                           0                       # DTB write hits
system.cpu.dtb.write_misses                         0                       # DTB write misses
system.cpu.fetch2.amo_instructions                  0                       # Number of memory atomic instructions successfully decoded
system.cpu.fetch2.fp_instructions                   0                       # Number of floating point instructions successfully decoded
system.cpu.fetch2.int_instructions           36709679                       # Number of integer instructions successfully decoded
system.cpu.fetch2.load_instructions          48286569                       # Number of memory load instructions successfully decoded
system.cpu.fetch2.store_instructions         12607634                       # Number of memory store instructions successfully decoded
system.cpu.fetch2.vec_instructions                  0                       # Number of SIMD instructions successfully decoded
system.cpu.idleCycles                        34193946                       # Total number of cycles that the object has spent stopped
system.cpu.ipc                               0.590165                       # IPC: instructions per cycle
system.cpu.itb.accesses                             0                       # DTB accesses
system.cpu.itb.align_faults                         0                       # Number of TLB faults due to alignment restrictions
system.cpu.itb.domain_faults                        0                       # Number of TLB faults due to domain restrictions
system.cpu.itb.flush_entries                        0                       # Number of entries that have been flushed from TLB
system.cpu.itb.flush_tlb                            0                       # Number of times complete TLB was flushed
system.cpu.itb.flush_tlb_asid                       0                       # Number of times TLB was flushed by ASID
system.cpu.itb.flush_tlb_mva                        0                       # Number of times TLB was flushed by MVA
system.cpu.itb.flush_tlb_mva_asid                   0                       # Number of times TLB was flushed by MVA & ASID
system.cpu.itb.hits                                 0                       # DTB hits
system.cpu.itb.inst_accesses                        0                       # ITB inst accesses
system.cpu.itb.inst_hits                            0                       # ITB inst hits
system.cpu.itb.inst_misses                          0                       # ITB inst misses
system.cpu.itb.misses                               0                       # DTB misses
system.cpu.itb.perms_faults                         0                       # Number of TLB faults due to permissions restrictions
system.cpu.itb.prefetch_faults                      0                       # Number of TLB faults due to prefetch
system.cpu.itb.read_accesses                        0                       # DTB read accesses
system.cpu.itb.read_hits                            0                       # DTB read hits
system.cpu.itb.read_misses                          0                       # DTB read misses
system.cpu.itb.stage2_mmu.stage2_tlb.accesses            0                       # DTB accesses
system.cpu.itb.stage2_mmu.stage2_tlb.align_faults            0                       # Number of TLB faults due to alignment restrictions
system.cpu.itb.stage2_mmu.stage2_tlb.domain_faults            0                       # Number of TLB faults due to domain restrictions
system.cpu.itb.stage2_mmu.stage2_tlb.flush_entries            0                       # Number of entries that have been flushed from TLB
system.cpu.itb.stage2_mmu.stage2_tlb.flush_tlb            0                       # Number of times complete TLB was flushed
system.cpu.itb.stage2_mmu.stage2_tlb.flush_tlb_asid            0                       # Number of times TLB was flushed by ASID
system.cpu.itb.stage2_mmu.stage2_tlb.flush_tlb_mva            0                       # Number of times TLB was flushed by MVA
system.cpu.itb.stage2_mmu.stage2_tlb.flush_tlb_mva_asid            0                       # Number of times TLB was flushed by MVA & ASID
system.cpu.itb.stage2_mmu.stage2_tlb.hits            0                       # DTB hits
system.cpu.itb.stage2_mmu.stage2_tlb.inst_accesses            0                       # ITB inst accesses
system.cpu.itb.stage2_mmu.stage2_tlb.inst_hits            0                       # ITB inst hits
system.cpu.itb.stage2_mmu.stage2_tlb.inst_misses            0                       # ITB inst misses
system.cpu.itb.stage2_mmu.stage2_tlb.misses            0                       # DTB misses
system.cpu.itb.stage2_mmu.stage2_tlb.perms_faults            0                       # Number of TLB faults due to permissions restrictions
system.cpu.itb.stage2_mmu.stage2_tlb.prefetch_faults            0                       # Number of TLB faults due to prefetch
system.cpu.itb.stage2_mmu.stage2_tlb.read_accesses            0                       # DTB read accesses
system.cpu.itb.stage2_mmu.stage2_tlb.read_hits            0                       # DTB read hits
system.cpu.itb.stage2_mmu.stage2_tlb.read_misses            0                       # DTB read misses
system.cpu.itb.stage2_mmu.stage2_tlb.walker.walkRequestOrigin_Requested::Data            0                       # Table walker requests started/completed, data/inst
system.cpu.itb.stage2_mmu.stage2_tlb.walker.walkRequestOrigin_Requested::Inst            0                       # Table walker requests started/completed, data/inst
system.cpu.itb.stage2_mmu.stage2_tlb.walker.walkRequestOrigin_Requested::total            0                       # Table walker requests started/completed, data/inst
system.cpu.itb.stage2_mmu.stage2_tlb.walker.walkRequestOrigin_Completed::Data            0                       # Table walker requests started/completed, data/inst
system.cpu.itb.stage2_mmu.stage2_tlb.walker.walkRequestOrigin_Completed::Inst            0                       # Table walker requests started/completed, data/inst
system.cpu.itb.stage2_mmu.stage2_tlb.walker.walkRequestOrigin_Completed::total            0                       # Table walker requests started/completed, data/inst
system.cpu.itb.stage2_mmu.stage2_tlb.walker.walkRequestOrigin::total            0                       # Table walker requests started/completed, data/inst
system.cpu.itb.stage2_mmu.stage2_tlb.walker.walks            0                       # Table walker walks requested
system.cpu.itb.stage2_mmu.stage2_tlb.write_accesses            0                       # DTB write accesses
system.cpu.itb.stage2_mmu.stage2_tlb.write_hits            0                       # DTB write hits
system.cpu.itb.stage2_mmu.stage2_tlb.write_misses            0                       # DTB write misses
system.cpu.itb.walker.walkRequestOrigin_Requested::Data            0                       # Table walker requests started/completed, data/inst
system.cpu.itb.walker.walkRequestOrigin_Requested::Inst            0                       # Table walker requests started/completed, data/inst
system.cpu.itb.walker.walkRequestOrigin_Requested::total            0                       # Table walker requests started/completed, data/inst
system.cpu.itb.walker.walkRequestOrigin_Completed::Data            0                       # Table walker requests started/completed, data/inst
system.cpu.itb.walker.walkRequestOrigin_Completed::Inst            0                       # Table walker requests started/completed, data/inst
system.cpu.itb.walker.walkRequestOrigin_Completed::total            0                       # Table walker requests started/completed, data/inst
system.cpu.itb.walker.walkRequestOrigin::total            0                       # Table walker requests started/completed, data/inst
system.cpu.itb.walker.walks                         0                       # Table walker walks requested
system.cpu.itb.write_accesses                       0                       # DTB write accesses
system.cpu.itb.write_hits                           0                       # DTB write hits
system.cpu.itb.write_misses                         0                       # DTB write misses
system.cpu.numCycles                        169444015                       # number of cpu cycles simulated
system.cpu.numFetchSuspends                         0                       # Number of times Execute suspended instruction fetching
system.cpu.numWorkItemsCompleted                    0                       # number of work items this cpu completed
system.cpu.numWorkItemsStarted                      0                       # number of work items this cpu started
system.cpu.op_class_0::No_OpClass                   0      0.00%      0.00% # Class of committed instruction
system.cpu.op_class_0::IntAlu                40801715     40.71%     40.71% # Class of committed instruction
system.cpu.op_class_0::IntMult                  20682      0.02%     40.73% # Class of committed instruction
system.cpu.op_class_0::IntDiv                       0      0.00%     40.73% # Class of committed instruction
system.cpu.op_class_0::FloatAdd                     0      0.00%     40.73% # Class of committed instruction
system.cpu.op_class_0::FloatCmp                     0      0.00%     40.73% # Class of committed instruction
system.cpu.op_class_0::FloatCvt                     0      0.00%     40.73% # Class of committed instruction
system.cpu.op_class_0::FloatMult                    0      0.00%     40.73% # Class of committed instruction
system.cpu.op_class_0::FloatMultAcc                 0      0.00%     40.73% # Class of committed instruction
system.cpu.op_class_0::FloatDiv                     0      0.00%     40.73% # Class of committed instruction
system.cpu.op_class_0::FloatMisc                    0      0.00%     40.73% # Class of committed instruction
system.cpu.op_class_0::FloatSqrt                    0      0.00%     40.73% # Class of committed instruction
system.cpu.op_class_0::SimdAdd                      0      0.00%     40.73% # Class of committed instruction
system.cpu.op_class_0::SimdAddAcc                   0      0.00%     40.73% # Class of committed instruction
system.cpu.op_class_0::SimdAlu                      0      0.00%     40.73% # Class of committed instruction
system.cpu.op_class_0::SimdCmp                      0      0.00%     40.73% # Class of committed instruction
system.cpu.op_class_0::SimdCvt                      0      0.00%     40.73% # Class of committed instruction
system.cpu.op_class_0::SimdMisc                     0      0.00%     40.73% # Class of committed instruction
system.cpu.op_class_0::SimdMult                     0      0.00%     40.73% # Class of committed instruction
system.cpu.op_class_0::SimdMultAcc                  0      0.00%     40.73% # Class of committed instruction
system.cpu.op_class_0::SimdShift                    0      0.00%     40.73% # Class of committed instruction
system.cpu.op_class_0::SimdShiftAcc                 0      0.00%     40.73% # Class of committed instruction
system.cpu.op_class_0::SimdDiv                      0      0.00%     40.73% # Class of committed instruction
system.cpu.op_class_0::SimdSqrt                     0      0.00%     40.73% # Class of committed instruction
system.cpu.op_class_0::SimdFloatAdd                 0      0.00%     40.73% # Class of committed instruction
system.cpu.op_class_0::SimdFloatAlu                 0      0.00%     40.73% # Class of committed instruction
system.cpu.op_class_0::SimdFloatCmp                 0      0.00%     40.73% # Class of committed instruction
system.cpu.op_class_0::SimdFloatCvt                 0      0.00%     40.73% # Class of committed instruction
system.cpu.op_class_0::SimdFloatDiv                 0      0.00%     40.73% # Class of committed instruction
system.cpu.op_class_0::SimdFloatMisc              102      0.00%     40.73% # Class of committed instruction
system.cpu.op_class_0::SimdFloatMult                0      0.00%     40.73% # Class of committed instruction
system.cpu.op_class_0::SimdFloatMultAcc             0      0.00%     40.73% # Class of committed instruction
system.cpu.op_class_0::SimdFloatSqrt                0      0.00%     40.73% # Class of committed instruction
system.cpu.op_class_0::SimdReduceAdd                0      0.00%     40.73% # Class of committed instruction
system.cpu.op_class_0::SimdReduceAlu                0      0.00%     40.73% # Class of committed instruction
system.cpu.op_class_0::SimdReduceCmp                0      0.00%     40.73% # Class of committed instruction
system.cpu.op_class_0::SimdFloatReduceAdd            0      0.00%     40.73% # Class of committed instruction
system.cpu.op_class_0::SimdFloatReduceCmp            0      0.00%     40.73% # Class of committed instruction
system.cpu.op_class_0::SimdAes                      0      0.00%     40.73% # Class of committed instruction
system.cpu.op_class_0::SimdAesMix                   0      0.00%     40.73% # Class of committed instruction
system.cpu.op_class_0::SimdSha1Hash                 0      0.00%     40.73% # Class of committed instruction
system.cpu.op_class_0::SimdSha1Hash2                0      0.00%     40.73% # Class of committed instruction
system.cpu.op_class_0::SimdSha256Hash               0      0.00%     40.73% # Class of committed instruction
system.cpu.op_class_0::SimdSha256Hash2              0      0.00%     40.73% # Class of committed instruction
system.cpu.op_class_0::SimdShaSigma2                0      0.00%     40.73% # Class of committed instruction
system.cpu.op_class_0::SimdShaSigma3                0      0.00%     40.73% # Class of committed instruction
system.cpu.op_class_0::SimdPredAlu                  0      0.00%     40.73% # Class of committed instruction
system.cpu.op_class_0::MemRead               46987583     46.88%     87.61% # Class of committed instruction
system.cpu.op_class_0::MemWrite              12413002     12.39%    100.00% # Class of committed instruction
system.cpu.op_class_0::FloatMemRead                 0      0.00%    100.00% # Class of committed instruction
system.cpu.op_class_0::FloatMemWrite                0      0.00%    100.00% # Class of committed instruction
system.cpu.op_class_0::IprAccess                    0      0.00%    100.00% # Class of committed instruction
system.cpu.op_class_0::InstPrefetch                 0      0.00%    100.00% # Class of committed instruction
system.cpu.op_class_0::total                100223084                       # Class of committed instruction
system.cpu.tickCycles                       135250069                       # Number of cycles that the object actually ticked
system.cpu.workload.numSyscalls                    85                       # Number of system calls
system.membus.snoop_filter.hit_multi_requests            0                       # Number of requests hitting in the snoop filter with multiple (>1) holders of the requested data.
system.membus.snoop_filter.hit_multi_snoops            0                       # Number of snoops hitting in the snoop filter with multiple (>1) holders of the requested data.
system.membus.snoop_filter.hit_single_requests       109702                       # Number of requests hitting in the snoop filter with a single holder of the requested data.
system.membus.snoop_filter.hit_single_snoops            0                       # Number of snoops hitting in the snoop filter with a single holder of the requested data.
system.membus.snoop_filter.tot_requests        235993                       # Total number of requests made to the snoop filter.
system.membus.snoop_filter.tot_snoops               0                       # Total number of snoops made to the snoop filter.
system.tol2bus.snoop_filter.hit_multi_requests          106                       # Number of requests hitting in the snoop filter with multiple (>1) holders of the requested data.
system.tol2bus.snoop_filter.hit_multi_snoops            0                       # Number of snoops hitting in the snoop filter with multiple (>1) holders of the requested data.
system.tol2bus.snoop_filter.hit_single_requests       580396                       # Number of requests hitting in the snoop filter with a single holder of the requested data.
system.tol2bus.snoop_filter.hit_single_snoops          327                       # Number of snoops hitting in the snoop filter with a single holder of the requested data.
system.tol2bus.snoop_filter.tot_requests      1162044                       # Total number of requests made to the snoop filter.
system.tol2bus.snoop_filter.tot_snoops            327                       # Total number of snoops made to the snoop filter.
system.membus.pwrStateResidencyTicks::UNDEFINED  84722007500                       # Cumulative time (in ticks) in various power states
system.membus.trans_dist::ReadResp              38900                       # Transaction distribution
system.membus.trans_dist::WritebackDirty        75849                       # Transaction distribution
system.membus.trans_dist::CleanEvict            33845                       # Transaction distribution
system.membus.trans_dist::ReadExReq             87399                       # Transaction distribution
system.membus.trans_dist::ReadExResp            87399                       # Transaction distribution
system.membus.trans_dist::ReadSharedReq         38900                       # Transaction distribution
system.membus.pkt_count_system.l2.mem_side::system.mem_ctrls.port       362292                       # Packet count per connected master and slave (bytes)
system.membus.pkt_count::total                 362292                       # Packet count per connected master and slave (bytes)
system.membus.pkt_size_system.l2.mem_side::system.mem_ctrls.port     25874944                       # Cumulative packet size per connected master and slave (bytes)
system.membus.pkt_size::total                25874944                       # Cumulative packet size per connected master and slave (bytes)
system.membus.snoops                                0                       # Total snoops (count)
system.membus.snoopTraffic                          0                       # Total snoop traffic (bytes)
system.membus.snoop_fanout::samples            126299                       # Request fanout histogram
system.membus.snoop_fanout::mean                    0                       # Request fanout histogram
system.membus.snoop_fanout::stdev                   0                       # Request fanout histogram
system.membus.snoop_fanout::underflows              0      0.00%      0.00% # Request fanout histogram
system.membus.snoop_fanout::0                  126299    100.00%    100.00% # Request fanout histogram
system.membus.snoop_fanout::1                       0      0.00%    100.00% # Request fanout histogram
system.membus.snoop_fanout::overflows               0      0.00%    100.00% # Request fanout histogram
system.membus.snoop_fanout::min_value               0                       # Request fanout histogram
system.membus.snoop_fanout::max_value               0                       # Request fanout histogram
system.membus.snoop_fanout::total              126299                       # Request fanout histogram
system.membus.respLayer1.occupancy         1181326250                       # Layer occupancy (ticks)
system.membus.respLayer1.utilization              1.4                       # Layer utilization (%)
system.membus.reqLayer0.occupancy           875838500                       # Layer occupancy (ticks)
system.membus.reqLayer0.utilization               1.0                       # Layer utilization (%)
system.tol2bus.pwrStateResidencyTicks::UNDEFINED  84722007500                       # Cumulative time (in ticks) in various power states
system.tol2bus.trans_dist::ReadResp            331745                       # Transaction distribution
system.tol2bus.trans_dist::WritebackDirty       591069                       # Transaction distribution
system.tol2bus.trans_dist::WritebackClean          211                       # Transaction distribution
system.tol2bus.trans_dist::CleanEvict           99134                       # Transaction distribution
system.tol2bus.trans_dist::ReadExReq           249904                       # Transaction distribution
system.tol2bus.trans_dist::ReadExResp          249904                       # Transaction distribution
system.tol2bus.trans_dist::ReadCleanReq           441                       # Transaction distribution
system.tol2bus.trans_dist::ReadSharedReq       331304                       # Transaction distribution
system.tol2bus.pkt_count_system.cpu.icache.mem_side::system.l2.cpu_side         1093                       # Packet count per connected master and slave (bytes)
system.tol2bus.pkt_count_system.cpu.dcache.mem_side::system.l2.cpu_side      1742600                       # Packet count per connected master and slave (bytes)
system.tol2bus.pkt_count::total               1743693                       # Packet count per connected master and slave (bytes)
system.tol2bus.pkt_size_system.cpu.icache.mem_side::system.l2.cpu_side        83456                       # Cumulative packet size per connected master and slave (bytes)
system.tol2bus.pkt_size_system.cpu.dcache.mem_side::system.l2.cpu_side    140342784                       # Cumulative packet size per connected master and slave (bytes)
system.tol2bus.pkt_size::total              140426240                       # Cumulative packet size per connected master and slave (bytes)
system.tol2bus.snoops                          110019                       # Total snoops (count)
system.tol2bus.snoopTraffic                   9708672                       # Total snoop traffic (bytes)
system.tol2bus.snoop_fanout::samples           691668                       # Request fanout histogram
system.tol2bus.snoop_fanout::mean            0.000627                       # Request fanout histogram
system.tol2bus.snoop_fanout::stdev           0.025041                       # Request fanout histogram
system.tol2bus.snoop_fanout::underflows             0      0.00%      0.00% # Request fanout histogram
system.tol2bus.snoop_fanout::0                 691234     99.94%     99.94% # Request fanout histogram
system.tol2bus.snoop_fanout::1                    434      0.06%    100.00% # Request fanout histogram
system.tol2bus.snoop_fanout::2                      0      0.00%    100.00% # Request fanout histogram
system.tol2bus.snoop_fanout::overflows              0      0.00%    100.00% # Request fanout histogram
system.tol2bus.snoop_fanout::min_value              0                       # Request fanout histogram
system.tol2bus.snoop_fanout::max_value              1                       # Request fanout histogram
system.tol2bus.snoop_fanout::total             691668                       # Request fanout histogram
system.tol2bus.reqLayer0.occupancy         1611884000                       # Layer occupancy (ticks)
system.tol2bus.reqLayer0.utilization              1.9                       # Layer utilization (%)
system.tol2bus.respLayer1.occupancy        1453020499                       # Layer occupancy (ticks)
system.tol2bus.respLayer1.utilization             1.7                       # Layer utilization (%)
system.tol2bus.respLayer0.occupancy           1103498                       # Layer occupancy (ticks)
system.tol2bus.respLayer0.utilization             0.0                       # Layer utilization (%)
system.voltage_domain.voltage                       1                       # Voltage in Volts
system.clk_domain.clock                          1000                       # Clock period in ticks
system.l2.pwrStateResidencyTicks::UNDEFINED  84722007500                       # Cumulative time (in ticks) in various power states
system.l2.demand_hits::.cpu.inst                   47                       # number of demand (read+write) hits
system.l2.demand_hits::.cpu.data               455300                       # number of demand (read+write) hits
system.l2.demand_hits::total                   455347                       # number of demand (read+write) hits
system.l2.overall_hits::.cpu.inst                  47                       # number of overall hits
system.l2.overall_hits::.cpu.data              455300                       # number of overall hits
system.l2.overall_hits::total                  455347                       # number of overall hits
system.l2.demand_misses::.cpu.inst                394                       # number of demand (read+write) misses
system.l2.demand_misses::.cpu.data             125908                       # number of demand (read+write) misses
system.l2.demand_misses::total                 126302                       # number of demand (read+write) misses
system.l2.overall_misses::.cpu.inst               394                       # number of overall misses
system.l2.overall_misses::.cpu.data            125908                       # number of overall misses
system.l2.overall_misses::total                126302                       # number of overall misses
system.l2.demand_miss_latency::.cpu.inst     33614000                       # number of demand (read+write) miss cycles
system.l2.demand_miss_latency::.cpu.data  11519627500                       # number of demand (read+write) miss cycles
system.l2.demand_miss_latency::total      11553241500                       # number of demand (read+write) miss cycles
system.l2.overall_miss_latency::.cpu.inst     33614000                       # number of overall miss cycles
system.l2.overall_miss_latency::.cpu.data  11519627500                       # number of overall miss cycles
system.l2.overall_miss_latency::total     11553241500                       # number of overall miss cycles
system.l2.demand_accesses::.cpu.inst              441                       # number of demand (read+write) accesses
system.l2.demand_accesses::.cpu.data           581208                       # number of demand (read+write) accesses
system.l2.demand_accesses::total               581649                       # number of demand (read+write) accesses
system.l2.overall_accesses::.cpu.inst             441                       # number of overall (read+write) accesses
system.l2.overall_accesses::.cpu.data          581208                       # number of overall (read+write) accesses
system.l2.overall_accesses::total              581649                       # number of overall (read+write) accesses
system.l2.demand_miss_rate::.cpu.inst        0.893424                       # miss rate for demand accesses
system.l2.demand_miss_rate::.cpu.data        0.216632                       # miss rate for demand accesses
system.l2.demand_miss_rate::total            0.217145                       # miss rate for demand accesses
system.l2.overall_miss_rate::.cpu.inst       0.893424                       # miss rate for overall accesses
system.l2.overall_miss_rate::.cpu.data       0.216632                       # miss rate for overall accesses
system.l2.overall_miss_rate::total           0.217145                       # miss rate for overall accesses
system.l2.demand_avg_miss_latency::.cpu.inst 85314.720812                       # average overall miss latency
system.l2.demand_avg_miss_latency::.cpu.data 91492.419068                       # average overall miss latency
system.l2.demand_avg_miss_latency::total 91473.147694                       # average overall miss latency
system.l2.overall_avg_miss_latency::.cpu.inst 85314.720812                       # average overall miss latency
system.l2.overall_avg_miss_latency::.cpu.data 91492.419068                       # average overall miss latency
system.l2.overall_avg_miss_latency::total 91473.147694                       # average overall miss latency
system.l2.blocked_cycles::no_mshrs                  0                       # number of cycles access was blocked
system.l2.blocked_cycles::no_targets                0                       # number of cycles access was blocked
system.l2.blocked::no_mshrs                         0                       # number of cycles access was blocked
system.l2.blocked::no_targets                       0                       # number of cycles access was blocked
system.l2.avg_blocked_cycles::no_mshrs            nan                       # average number of cycles each access was blocked
system.l2.avg_blocked_cycles::no_targets          nan                       # average number of cycles each access was blocked
system.l2.writebacks::.writebacks               75849                       # number of writebacks
system.l2.writebacks::total                     75849                       # number of writebacks
system.l2.demand_mshr_hits::.cpu.inst               2                       # number of demand (read+write) MSHR hits
system.l2.demand_mshr_hits::.cpu.data               1                       # number of demand (read+write) MSHR hits
system.l2.demand_mshr_hits::total                   3                       # number of demand (read+write) MSHR hits
system.l2.overall_mshr_hits::.cpu.inst              2                       # number of overall MSHR hits
system.l2.overall_mshr_hits::.cpu.data              1                       # number of overall MSHR hits
system.l2.overall_mshr_hits::total                  3                       # number of overall MSHR hits
system.l2.demand_mshr_misses::.cpu.inst           392                       # number of demand (read+write) MSHR misses
system.l2.demand_mshr_misses::.cpu.data        125907                       # number of demand (read+write) MSHR misses
system.l2.demand_mshr_misses::total            126299                       # number of demand (read+write) MSHR misses
system.l2.overall_mshr_misses::.cpu.inst          392                       # number of overall MSHR misses
system.l2.overall_mshr_misses::.cpu.data       125907                       # number of overall MSHR misses
system.l2.overall_mshr_misses::total           126299                       # number of overall MSHR misses
system.l2.demand_mshr_miss_latency::.cpu.inst     29586000                       # number of demand (read+write) MSHR miss cycles
system.l2.demand_mshr_miss_latency::.cpu.data  10260484500                       # number of demand (read+write) MSHR miss cycles
system.l2.demand_mshr_miss_latency::total  10290070500                       # number of demand (read+write) MSHR miss cycles
system.l2.overall_mshr_miss_latency::.cpu.inst     29586000                       # number of overall MSHR miss cycles
system.l2.overall_mshr_miss_latency::.cpu.data  10260484500                       # number of overall MSHR miss cycles
system.l2.overall_mshr_miss_latency::total  10290070500                       # number of overall MSHR miss cycles
system.l2.demand_mshr_miss_rate::.cpu.inst     0.888889                       # mshr miss rate for demand accesses
system.l2.demand_mshr_miss_rate::.cpu.data     0.216630                       # mshr miss rate for demand accesses
system.l2.demand_mshr_miss_rate::total       0.217140                       # mshr miss rate for demand accesses
system.l2.overall_mshr_miss_rate::.cpu.inst     0.888889                       # mshr miss rate for overall accesses
system.l2.overall_mshr_miss_rate::.cpu.data     0.216630                       # mshr miss rate for overall accesses
system.l2.overall_mshr_miss_rate::total      0.217140                       # mshr miss rate for overall accesses
system.l2.demand_avg_mshr_miss_latency::.cpu.inst 75474.489796                       # average overall mshr miss latency
system.l2.demand_avg_mshr_miss_latency::.cpu.data 81492.565942                       # average overall mshr miss latency
system.l2.demand_avg_mshr_miss_latency::total 81473.887363                       # average overall mshr miss latency
system.l2.overall_avg_mshr_miss_latency::.cpu.inst 75474.489796                       # average overall mshr miss latency
system.l2.overall_avg_mshr_miss_latency::.cpu.data 81492.565942                       # average overall mshr miss latency
system.l2.overall_avg_mshr_miss_latency::total 81473.887363                       # average overall mshr miss latency
system.l2.replacements                         110019                       # number of replacements
system.l2.WritebackDirty_hits::.writebacks       515220                       # number of WritebackDirty hits
system.l2.WritebackDirty_hits::total           515220                       # number of WritebackDirty hits
system.l2.WritebackDirty_accesses::.writebacks       515220                       # number of WritebackDirty accesses(hits+misses)
system.l2.WritebackDirty_accesses::total       515220                       # number of WritebackDirty accesses(hits+misses)
system.l2.WritebackClean_hits::.writebacks          200                       # number of WritebackClean hits
system.l2.WritebackClean_hits::total              200                       # number of WritebackClean hits
system.l2.WritebackClean_accesses::.writebacks          200                       # number of WritebackClean accesses(hits+misses)
system.l2.WritebackClean_accesses::total          200                       # number of WritebackClean accesses(hits+misses)
system.l2.CleanEvict_mshr_misses::.writebacks            2                       # number of CleanEvict MSHR misses
system.l2.CleanEvict_mshr_misses::total             2                       # number of CleanEvict MSHR misses
system.l2.CleanEvict_mshr_miss_rate::.writebacks          inf                       # mshr miss rate for CleanEvict accesses
system.l2.CleanEvict_mshr_miss_rate::total          inf                       # mshr miss rate for CleanEvict accesses
system.l2.ReadExReq_hits::.cpu.data            162505                       # number of ReadExReq hits
system.l2.ReadExReq_hits::total                162505                       # number of ReadExReq hits
system.l2.ReadExReq_misses::.cpu.data           87399                       # number of ReadExReq misses
system.l2.ReadExReq_misses::total               87399                       # number of ReadExReq misses
system.l2.ReadExReq_miss_latency::.cpu.data   8169588000                       # number of ReadExReq miss cycles
system.l2.ReadExReq_miss_latency::total    8169588000                       # number of ReadExReq miss cycles
system.l2.ReadExReq_accesses::.cpu.data        249904                       # number of ReadExReq accesses(hits+misses)
system.l2.ReadExReq_accesses::total            249904                       # number of ReadExReq accesses(hits+misses)
system.l2.ReadExReq_miss_rate::.cpu.data     0.349730                       # miss rate for ReadExReq accesses
system.l2.ReadExReq_miss_rate::total         0.349730                       # miss rate for ReadExReq accesses
system.l2.ReadExReq_avg_miss_latency::.cpu.data 93474.616414                       # average ReadExReq miss latency
system.l2.ReadExReq_avg_miss_latency::total 93474.616414                       # average ReadExReq miss latency
system.l2.ReadExReq_mshr_misses::.cpu.data        87399                       # number of ReadExReq MSHR misses
system.l2.ReadExReq_mshr_misses::total          87399                       # number of ReadExReq MSHR misses
system.l2.ReadExReq_mshr_miss_latency::.cpu.data   7295598000                       # number of ReadExReq MSHR miss cycles
system.l2.ReadExReq_mshr_miss_latency::total   7295598000                       # number of ReadExReq MSHR miss cycles
system.l2.ReadExReq_mshr_miss_rate::.cpu.data     0.349730                       # mshr miss rate for ReadExReq accesses
system.l2.ReadExReq_mshr_miss_rate::total     0.349730                       # mshr miss rate for ReadExReq accesses
system.l2.ReadExReq_avg_mshr_miss_latency::.cpu.data 83474.616414                       # average ReadExReq mshr miss latency
system.l2.ReadExReq_avg_mshr_miss_latency::total 83474.616414                       # average ReadExReq mshr miss latency
system.l2.ReadCleanReq_hits::.cpu.inst             47                       # number of ReadCleanReq hits
system.l2.ReadCleanReq_hits::total                 47                       # number of ReadCleanReq hits
system.l2.ReadCleanReq_misses::.cpu.inst          394                       # number of ReadCleanReq misses
system.l2.ReadCleanReq_misses::total              394                       # number of ReadCleanReq misses
system.l2.ReadCleanReq_miss_latency::.cpu.inst     33614000                       # number of ReadCleanReq miss cycles
system.l2.ReadCleanReq_miss_latency::total     33614000                       # number of ReadCleanReq miss cycles
system.l2.ReadCleanReq_accesses::.cpu.inst          441                       # number of ReadCleanReq accesses(hits+misses)
system.l2.ReadCleanReq_accesses::total            441                       # number of ReadCleanReq accesses(hits+misses)
system.l2.ReadCleanReq_miss_rate::.cpu.inst     0.893424                       # miss rate for ReadCleanReq accesses
system.l2.ReadCleanReq_miss_rate::total      0.893424                       # miss rate for ReadCleanReq accesses
system.l2.ReadCleanReq_avg_miss_latency::.cpu.inst 85314.720812                       # average ReadCleanReq miss latency
system.l2.ReadCleanReq_avg_miss_latency::total 85314.720812                       # average ReadCleanReq miss latency
system.l2.ReadCleanReq_mshr_hits::.cpu.inst            2                       # number of ReadCleanReq MSHR hits
system.l2.ReadCleanReq_mshr_hits::total             2                       # number of ReadCleanReq MSHR hits
system.l2.ReadCleanReq_mshr_misses::.cpu.inst          392                       # number of ReadCleanReq MSHR misses
system.l2.ReadCleanReq_mshr_misses::total          392                       # number of ReadCleanReq MSHR misses
system.l2.ReadCleanReq_mshr_miss_latency::.cpu.inst     29586000                       # number of ReadCleanReq MSHR miss cycles
system.l2.ReadCleanReq_mshr_miss_latency::total     29586000                       # number of ReadCleanReq MSHR miss cycles
system.l2.ReadCleanReq_mshr_miss_rate::.cpu.inst     0.888889                       # mshr miss rate for ReadCleanReq accesses
system.l2.ReadCleanReq_mshr_miss_rate::total     0.888889                       # mshr miss rate for ReadCleanReq accesses
system.l2.ReadCleanReq_avg_mshr_miss_latency::.cpu.inst 75474.489796                       # average ReadCleanReq mshr miss latency
system.l2.ReadCleanReq_avg_mshr_miss_latency::total 75474.489796                       # average ReadCleanReq mshr miss latency
system.l2.ReadSharedReq_hits::.cpu.data        292795                       # number of ReadSharedReq hits
system.l2.ReadSharedReq_hits::total            292795                       # number of ReadSharedReq hits
system.l2.ReadSharedReq_misses::.cpu.data        38509                       # number of ReadSharedReq misses
system.l2.ReadSharedReq_misses::total           38509                       # number of ReadSharedReq misses
system.l2.ReadSharedReq_miss_latency::.cpu.data   3350039500                       # number of ReadSharedReq miss cycles
system.l2.ReadSharedReq_miss_latency::total   3350039500                       # number of ReadSharedReq miss cycles
system.l2.ReadSharedReq_accesses::.cpu.data       331304                       # number of ReadSharedReq accesses(hits+misses)
system.l2.ReadSharedReq_accesses::total        331304                       # number of ReadSharedReq accesses(hits+misses)
system.l2.ReadSharedReq_miss_rate::.cpu.data     0.116235                       # miss rate for ReadSharedReq accesses
system.l2.ReadSharedReq_miss_rate::total     0.116235                       # miss rate for ReadSharedReq accesses
system.l2.ReadSharedReq_avg_miss_latency::.cpu.data 86993.676803                       # average ReadSharedReq miss latency
system.l2.ReadSharedReq_avg_miss_latency::total 86993.676803                       # average ReadSharedReq miss latency
system.l2.ReadSharedReq_mshr_hits::.cpu.data            1                       # number of ReadSharedReq MSHR hits
system.l2.ReadSharedReq_mshr_hits::total            1                       # number of ReadSharedReq MSHR hits
system.l2.ReadSharedReq_mshr_misses::.cpu.data        38508                       # number of ReadSharedReq MSHR misses
system.l2.ReadSharedReq_mshr_misses::total        38508                       # number of ReadSharedReq MSHR misses
system.l2.ReadSharedReq_mshr_miss_latency::.cpu.data   2964886500                       # number of ReadSharedReq MSHR miss cycles
system.l2.ReadSharedReq_mshr_miss_latency::total   2964886500                       # number of ReadSharedReq MSHR miss cycles
system.l2.ReadSharedReq_mshr_miss_rate::.cpu.data     0.116232                       # mshr miss rate for ReadSharedReq accesses
system.l2.ReadSharedReq_mshr_miss_rate::total     0.116232                       # mshr miss rate for ReadSharedReq accesses
system.l2.ReadSharedReq_avg_mshr_miss_latency::.cpu.data 76994.040199                       # average ReadSharedReq mshr miss latency
system.l2.ReadSharedReq_avg_mshr_miss_latency::total 76994.040199                       # average ReadSharedReq mshr miss latency
system.l2.tags.pwrStateResidencyTicks::UNDEFINED  84722007500                       # Cumulative time (in ticks) in various power states
system.l2.tags.tagsinuse                 15954.288267                       # Cycle average of tags in use
system.l2.tags.total_refs                     1161933                       # Total number of references to valid blocks.
system.l2.tags.sampled_refs                    126403                       # Sample count of references to valid blocks.
system.l2.tags.avg_refs                      9.192290                       # Average number of references to valid blocks.
system.l2.tags.warmup_cycle                     82000                       # Cycle when the warmup percentage was hit.
system.l2.tags.occ_blocks::.writebacks      30.821976                       # Average occupied blocks per requestor
system.l2.tags.occ_blocks::.cpu.inst        44.995117                       # Average occupied blocks per requestor
system.l2.tags.occ_blocks::.cpu.data     15878.471174                       # Average occupied blocks per requestor
system.l2.tags.occ_percent::.writebacks      0.001881                       # Average percentage of cache occupancy
system.l2.tags.occ_percent::.cpu.inst        0.002746                       # Average percentage of cache occupancy
system.l2.tags.occ_percent::.cpu.data        0.969145                       # Average percentage of cache occupancy
system.l2.tags.occ_percent::total            0.973772                       # Average percentage of cache occupancy
system.l2.tags.occ_task_id_blocks::1024         16384                       # Occupied blocks per task id
system.l2.tags.age_task_id_blocks_1024::0            2                       # Occupied blocks per task id
system.l2.tags.age_task_id_blocks_1024::1            2                       # Occupied blocks per task id
system.l2.tags.age_task_id_blocks_1024::2          372                       # Occupied blocks per task id
system.l2.tags.age_task_id_blocks_1024::3         4523                       # Occupied blocks per task id
system.l2.tags.age_task_id_blocks_1024::4        11485                       # Occupied blocks per task id
system.l2.tags.occ_task_id_percent::1024            1                       # Percentage of cache occupancy per task id
system.l2.tags.tag_accesses                   9421907                       # Number of tag accesses
system.l2.tags.data_accesses                  9421907                       # Number of data accesses
system.cpu_voltage_domain.voltage                   1                       # Voltage in Volts
system.mem_ctrls.pwrStateResidencyTicks::UNDEFINED  84722007500                       # Cumulative time (in ticks) in various power states
system.mem_ctrls.bytes_read::.cpu.inst          50176                       # Number of bytes read from this memory
system.mem_ctrls.bytes_read::.cpu.data       16116096                       # Number of bytes read from this memory
system.mem_ctrls.bytes_read::total           16166272                       # Number of bytes read from this memory
system.mem_ctrls.bytes_inst_read::.cpu.inst        50176                       # Number of instructions bytes read from this memory
system.mem_ctrls.bytes_inst_read::total         50176                       # Number of instructions bytes read from this memory
system.mem_ctrls.bytes_written::.writebacks      9708672                       # Number of bytes written to this memory
system.mem_ctrls.bytes_written::total         9708672                       # Number of bytes written to this memory
system.mem_ctrls.num_reads::.cpu.inst             392                       # Number of read requests responded to by this memory
system.mem_ctrls.num_reads::.cpu.data          125907                       # Number of read requests responded to by this memory
system.mem_ctrls.num_reads::total              126299                       # Number of read requests responded to by this memory
system.mem_ctrls.num_writes::.writebacks        75849                       # Number of write requests responded to by this memory
system.mem_ctrls.num_writes::total              75849                       # Number of write requests responded to by this memory
system.mem_ctrls.bw_read::.cpu.inst            592243                       # Total read bandwidth from this memory (bytes/s)
system.mem_ctrls.bw_read::.cpu.data         190223255                       # Total read bandwidth from this memory (bytes/s)
system.mem_ctrls.bw_read::total             190815497                       # Total read bandwidth from this memory (bytes/s)
system.mem_ctrls.bw_inst_read::.cpu.inst       592243                       # Instruction read bandwidth from this memory (bytes/s)
system.mem_ctrls.bw_inst_read::total           592243                       # Instruction read bandwidth from this memory (bytes/s)
system.mem_ctrls.bw_write::.writebacks      114594452                       # Write bandwidth from this memory (bytes/s)
system.mem_ctrls.bw_write::total            114594452                       # Write bandwidth from this memory (bytes/s)
system.mem_ctrls.bw_total::.writebacks      114594452                       # Total bandwidth to/from this memory (bytes/s)
system.mem_ctrls.bw_total::.cpu.inst           592243                       # Total bandwidth to/from this memory (bytes/s)
system.mem_ctrls.bw_total::.cpu.data        190223255                       # Total bandwidth to/from this memory (bytes/s)
system.mem_ctrls.bw_total::total            305409949                       # Total bandwidth to/from this memory (bytes/s)
system.mem_ctrls.avgPriority_.writebacks::samples    151698.00                       # Average QoS priority value for accepted requests
system.mem_ctrls.avgPriority_.cpu.inst::samples       784.00                       # Average QoS priority value for accepted requests
system.mem_ctrls.avgPriority_.cpu.data::samples    251766.00                       # Average QoS priority value for accepted requests
system.mem_ctrls.priorityMinLatency      0.000000018750                       # per QoS priority minimum request to response latency (s)
system.mem_ctrls.priorityMaxLatency      0.003815622500                       # per QoS priority maximum request to response latency (s)
system.mem_ctrls.numReadWriteTurnArounds         9119                       # Number of turnarounds from READ to WRITE
system.mem_ctrls.numWriteReadTurnArounds         9119                       # Number of turnarounds from WRITE to READ
system.mem_ctrls.numStayReadState              461995                       # Number of times bus staying in READ state
system.mem_ctrls.numStayWriteState             142745                       # Number of times bus staying in WRITE state
system.mem_ctrls.readReqs                      126299                       # Number of read requests accepted
system.mem_ctrls.writeReqs                      75849                       # Number of write requests accepted
system.mem_ctrls.readBursts                    252598                       # Number of DRAM read bursts, including those serviced by the write queue
system.mem_ctrls.writeBursts                   151698                       # Number of DRAM write bursts, including those merged in the write queue
system.mem_ctrls.servicedByWrQ                     48                       # Number of DRAM read bursts serviced by the write queue
system.mem_ctrls.mergedWrBursts                     0                       # Number of DRAM write bursts merged with an existing one
system.mem_ctrls.neitherReadNorWriteReqs            0                       # Number of requests that are neither read nor write
system.mem_ctrls.perBankRdBursts::0             16010                       # Per bank write bursts
system.mem_ctrls.perBankRdBursts::1             16092                       # Per bank write bursts
system.mem_ctrls.perBankRdBursts::2             15936                       # Per bank write bursts
system.mem_ctrls.perBankRdBursts::3             15994                       # Per bank write bursts
system.mem_ctrls.perBankRdBursts::4             16062                       # Per bank write bursts
system.mem_ctrls.perBankRdBursts::5             15922                       # Per bank write bursts
system.mem_ctrls.perBankRdBursts::6             15910                       # Per bank write bursts
system.mem_ctrls.perBankRdBursts::7             15720                       # Per bank write bursts
system.mem_ctrls.perBankRdBursts::8             15776                       # Per bank write bursts
system.mem_ctrls.perBankRdBursts::9             15690                       # Per bank write bursts
system.mem_ctrls.perBankRdBursts::10            15426                       # Per bank write bursts
system.mem_ctrls.perBankRdBursts::11            15586                       # Per bank write bursts
system.mem_ctrls.perBankRdBursts::12            15646                       # Per bank write bursts
system.mem_ctrls.perBankRdBursts::13            15576                       # Per bank write bursts
system.mem_ctrls.perBankRdBursts::14            15558                       # Per bank write bursts
system.mem_ctrls.perBankRdBursts::15            15646                       # Per bank write bursts
system.mem_ctrls.perBankWrBursts::0              9498                       # Per bank write bursts
system.mem_ctrls.perBankWrBursts::1              9651                       # Per bank write bursts
system.mem_ctrls.perBankWrBursts::2              9548                       # Per bank write bursts
system.mem_ctrls.perBankWrBursts::3              9588                       # Per bank write bursts
system.mem_ctrls.perBankWrBursts::4              9722                       # Per bank write bursts
system.mem_ctrls.perBankWrBursts::5              9714                       # Per bank write bursts
system.mem_ctrls.perBankWrBursts::6              9712                       # Per bank write bursts
system.mem_ctrls.perBankWrBursts::7              9536                       # Per bank write bursts
system.mem_ctrls.perBankWrBursts::8              9522                       # Per bank write bursts
system.mem_ctrls.perBankWrBursts::9              9494                       # Per bank write bursts
system.mem_ctrls.perBankWrBursts::10             9228                       # Per bank write bursts
system.mem_ctrls.perBankWrBursts::11             9284                       # Per bank write bursts
system.mem_ctrls.perBankWrBursts::12             9376                       # Per bank write bursts
system.mem_ctrls.perBankWrBursts::13             9280                       # Per bank write bursts
system.mem_ctrls.perBankWrBursts::14             9244                       # Per bank write bursts
system.mem_ctrls.perBankWrBursts::15             9286                       # Per bank write bursts
system.mem_ctrls.avgRdQLen                       2.06                       # Average read queue length when enqueuing
system.mem_ctrls.avgWrQLen                      25.07                       # Average write queue length when enqueuing
system.mem_ctrls.totQLat                   4806825750                       # Total ticks spent queuing
system.mem_ctrls.totBusLat                 1262750000                       # Total ticks spent in databus transfers
system.mem_ctrls.totMemAccLat              9542138250                       # Total ticks spent from burst creation until serviced by the DRAM
system.mem_ctrls.avgQLat                     19033.16                       # Average queueing delay per DRAM burst
system.mem_ctrls.avgBusLat                    5000.00                       # Average bus latency per DRAM burst
system.mem_ctrls.avgMemAccLat                37783.16                       # Average memory access latency per DRAM burst
system.mem_ctrls.numRdRetry                         0                       # Number of times read queue was full causing retry
system.mem_ctrls.numWrRetry                         0                       # Number of times write queue was full causing retry
system.mem_ctrls.readRowHits                   207309                       # Number of row buffer hits during reads
system.mem_ctrls.writeRowHits                  119245                       # Number of row buffer hits during writes
system.mem_ctrls.readRowHitRate                 82.09                       # Row buffer hit rate for reads
system.mem_ctrls.writeRowHitRate                78.61                       # Row buffer hit rate for writes
system.mem_ctrls.readPktSize::0                     0                       # Read request sizes (log2)
system.mem_ctrls.readPktSize::1                     0                       # Read request sizes (log2)
system.mem_ctrls.readPktSize::2                     0                       # Read request sizes (log2)
system.mem_ctrls.readPktSize::3                     0                       # Read request sizes (log2)
system.mem_ctrls.readPktSize::4                     0                       # Read request sizes (log2)
system.mem_ctrls.readPktSize::5                     0                       # Read request sizes (log2)
system.mem_ctrls.readPktSize::6                252598                       # Read request sizes (log2)
system.mem_ctrls.writePktSize::0                    0                       # Write request sizes (log2)
system.mem_ctrls.writePktSize::1                    0                       # Write request sizes (log2)
system.mem_ctrls.writePktSize::2                    0                       # Write request sizes (log2)
system.mem_ctrls.writePktSize::3                    0                       # Write request sizes (log2)
system.mem_ctrls.writePktSize::4                    0                       # Write request sizes (log2)
system.mem_ctrls.writePktSize::5                    0                       # Write request sizes (log2)
system.mem_ctrls.writePktSize::6               151698                       # Write request sizes (log2)
system.mem_ctrls.rdQLenPdf::0                  107733                       # What read queue length does an incoming req see
system.mem_ctrls.rdQLenPdf::1                  108201                       # What read queue length does an incoming req see
system.mem_ctrls.rdQLenPdf::2                   18535                       # What read queue length does an incoming req see
system.mem_ctrls.rdQLenPdf::3                   18068                       # What read queue length does an incoming req see
system.mem_ctrls.rdQLenPdf::4                       7                       # What read queue length does an incoming req see
system.mem_ctrls.rdQLenPdf::5                       6                       # What read queue length does an incoming req see
system.mem_ctrls.rdQLenPdf::6                       0                       # What read queue length does an incoming req see
system.mem_ctrls.rdQLenPdf::7                       0                       # What read queue length does an incoming req see
system.mem_ctrls.rdQLenPdf::8                       0                       # What read queue length does an incoming req see
system.mem_ctrls.rdQLenPdf::9                       0                       # What read queue length does an incoming req see
system.mem_ctrls.rdQLenPdf::10                      0                       # What read queue length does an incoming req see
system.mem_ctrls.rdQLenPdf::11                      0                       # What read queue length does an incoming req see
system.mem_ctrls.rdQLenPdf::12                      0                       # What read queue length does an incoming req see
system.mem_ctrls.rdQLenPdf::13                      0                       # What read queue length does an incoming req see
system.mem_ctrls.rdQLenPdf::14                      0                       # What read queue length does an incoming req see
system.mem_ctrls.rdQLenPdf::15                      0                       # What read queue length does an incoming req see
system.mem_ctrls.rdQLenPdf::16                      0                       # What read queue length does an incoming req see
system.mem_ctrls.rdQLenPdf::17                      0                       # What read queue length does an incoming req see
system.mem_ctrls.rdQLenPdf::18                      0                       # What read queue length does an incoming req see
system.mem_ctrls.rdQLenPdf::19                      0                       # What read queue length does an incoming req see
system.mem_ctrls.rdQLenPdf::20                      0                       # What read queue length does an incoming req see
system.mem_ctrls.rdQLenPdf::21                      0                       # What read queue length does an incoming req see
system.mem_ctrls.rdQLenPdf::22                      0                       # What read queue length does an incoming req see
system.mem_ctrls.rdQLenPdf::23                      0                       # What read queue length does an incoming req see
system.mem_ctrls.rdQLenPdf::24                      0                       # What read queue length does an incoming req see
system.mem_ctrls.rdQLenPdf::25                      0                       # What read queue length does an incoming req see
system.mem_ctrls.rdQLenPdf::26                      0                       # What read queue length does an incoming req see
system.mem_ctrls.rdQLenPdf::27                      0                       # What read queue length does an incoming req see
system.mem_ctrls.rdQLenPdf::28                      0                       # What read queue length does an incoming req see
system.mem_ctrls.rdQLenPdf::29                      0                       # What read queue length does an incoming req see
system.mem_ctrls.rdQLenPdf::30                      0                       # What read queue length does an incoming req see
system.mem_ctrls.rdQLenPdf::31                      0                       # What read queue length does an incoming req see
system.mem_ctrls.wrQLenPdf::0                       1                       # What write queue length does an incoming req see
system.mem_ctrls.wrQLenPdf::1                       1                       # What write queue length does an incoming req see
system.mem_ctrls.wrQLenPdf::2                       1                       # What write queue length does an incoming req see
system.mem_ctrls.wrQLenPdf::3                       1                       # What write queue length does an incoming req see
system.mem_ctrls.wrQLenPdf::4                       1                       # What write queue length does an incoming req see
system.mem_ctrls.wrQLenPdf::5                       1                       # What write queue length does an incoming req see
system.mem_ctrls.wrQLenPdf::6                       1                       # What write queue length does an incoming req see
system.mem_ctrls.wrQLenPdf::7                       1                       # What write queue length does an incoming req see
system.mem_ctrls.wrQLenPdf::8                       1                       # What write queue length does an incoming req see
system.mem_ctrls.wrQLenPdf::9                       1                       # What write queue length does an incoming req see
system.mem_ctrls.wrQLenPdf::10                      1                       # What write queue length does an incoming req see
system.mem_ctrls.wrQLenPdf::11                      1                       # What write queue length does an incoming req see
system.mem_ctrls.wrQLenPdf::12                      1                       # What write queue length does an incoming req see
system.mem_ctrls.wrQLenPdf::13                      1                       # What write queue length does an incoming req see
system.mem_ctrls.wrQLenPdf::14                      1                       # What write queue length does an incoming req see
system.mem_ctrls.wrQLenPdf::15                   2562                       # What write queue length does an incoming req see
system.mem_ctrls.wrQLenPdf::16                   2602                       # What write queue length does an incoming req see
system.mem_ctrls.wrQLenPdf::17                   5470                       # What write queue length does an incoming req see
system.mem_ctrls.wrQLenPdf::18                   6190                       # What write queue length does an incoming req see
system.mem_ctrls.wrQLenPdf::19                   7189                       # What write queue length does an incoming req see
system.mem_ctrls.wrQLenPdf::20                   9217                       # What write queue length does an incoming req see
system.mem_ctrls.wrQLenPdf::21                   9214                       # What write queue length does an incoming req see
system.mem_ctrls.wrQLenPdf::22                   9199                       # What write queue length does an incoming req see
system.mem_ctrls.wrQLenPdf::23                   9180                       # What write queue length does an incoming req see
system.mem_ctrls.wrQLenPdf::24                   9325                       # What write queue length does an incoming req see
system.mem_ctrls.wrQLenPdf::25                   9926                       # What write queue length does an incoming req see
system.mem_ctrls.wrQLenPdf::26                  11662                       # What write queue length does an incoming req see
system.mem_ctrls.wrQLenPdf::27                  11089                       # What write queue length does an incoming req see
system.mem_ctrls.wrQLenPdf::28                   9276                       # What write queue length does an incoming req see
system.mem_ctrls.wrQLenPdf::29                   9332                       # What write queue length does an incoming req see
system.mem_ctrls.wrQLenPdf::30                   9236                       # What write queue length does an incoming req see
system.mem_ctrls.wrQLenPdf::31                   9126                       # What write queue length does an incoming req see
system.mem_ctrls.wrQLenPdf::32                   9121                       # What write queue length does an incoming req see
system.mem_ctrls.wrQLenPdf::33                   2752                       # What write queue length does an incoming req see
system.mem_ctrls.wrQLenPdf::34                     13                       # What write queue length does an incoming req see
system.mem_ctrls.wrQLenPdf::35                      2                       # What write queue length does an incoming req see
system.mem_ctrls.wrQLenPdf::36                      0                       # What write queue length does an incoming req see
system.mem_ctrls.wrQLenPdf::37                      0                       # What write queue length does an incoming req see
system.mem_ctrls.wrQLenPdf::38                      0                       # What write queue length does an incoming req see
system.mem_ctrls.wrQLenPdf::39                      0                       # What write queue length does an incoming req see
system.mem_ctrls.wrQLenPdf::40                      0                       # What write queue length does an incoming req see
system.mem_ctrls.wrQLenPdf::41                      0                       # What write queue length does an incoming req see
system.mem_ctrls.wrQLenPdf::42                      0                       # What write queue length does an incoming req see
system.mem_ctrls.wrQLenPdf::43                      0                       # What write queue length does an incoming req see
system.mem_ctrls.wrQLenPdf::44                      0                       # What write queue length does an incoming req see
system.mem_ctrls.wrQLenPdf::45                      0                       # What write queue length does an incoming req see
system.mem_ctrls.wrQLenPdf::46                      0                       # What write queue length does an incoming req see
system.mem_ctrls.wrQLenPdf::47                      0                       # What write queue length does an incoming req see
system.mem_ctrls.wrQLenPdf::48                      0                       # What write queue length does an incoming req see
system.mem_ctrls.wrQLenPdf::49                      0                       # What write queue length does an incoming req see
system.mem_ctrls.wrQLenPdf::50                      0                       # What write queue length does an incoming req see
system.mem_ctrls.wrQLenPdf::51                      0                       # What write queue length does an incoming req see
system.mem_ctrls.wrQLenPdf::52                      0                       # What write queue length does an incoming req see
system.mem_ctrls.wrQLenPdf::53                      0                       # What write queue length does an incoming req see
system.mem_ctrls.wrQLenPdf::54                      0                       # What write queue length does an incoming req see
system.mem_ctrls.wrQLenPdf::55                      0                       # What write queue length does an incoming req see
system.mem_ctrls.wrQLenPdf::56                      0                       # What write queue length does an incoming req see
system.mem_ctrls.wrQLenPdf::57                      0                       # What write queue length does an incoming req see
system.mem_ctrls.wrQLenPdf::58                      0                       # What write queue length does an incoming req see
system.mem_ctrls.wrQLenPdf::59                      0                       # What write queue length does an incoming req see
system.mem_ctrls.wrQLenPdf::60                      0                       # What write queue length does an incoming req see
system.mem_ctrls.wrQLenPdf::61                      0                       # What write queue length does an incoming req see
system.mem_ctrls.wrQLenPdf::62                      0                       # What write queue length does an incoming req see
system.mem_ctrls.wrQLenPdf::63                      0                       # What write queue length does an incoming req see
system.mem_ctrls.bytesPerActivate::samples        77675                       # Bytes accessed per row activation
system.mem_ctrls.bytesPerActivate::mean    333.061191                       # Bytes accessed per row activation
system.mem_ctrls.bytesPerActivate::gmean   212.904314                       # Bytes accessed per row activation
system.mem_ctrls.bytesPerActivate::stdev   352.688036                       # Bytes accessed per row activation
system.mem_ctrls.bytesPerActivate::0-127         3825      4.92%      4.92% # Bytes accessed per row activation
system.mem_ctrls.bytesPerActivate::128-255        48803     62.83%     67.75% # Bytes accessed per row activation
system.mem_ctrls.bytesPerActivate::256-383         5076      6.53%     74.29% # Bytes accessed per row activation
system.mem_ctrls.bytesPerActivate::384-511         1631      2.10%     76.39% # Bytes accessed per row activation
system.mem_ctrls.bytesPerActivate::512-639         1070      1.38%     77.77% # Bytes accessed per row activation
system.mem_ctrls.bytesPerActivate::640-767          974      1.25%     79.02% # Bytes accessed per row activation
system.mem_ctrls.bytesPerActivate::768-895         1688      2.17%     81.19% # Bytes accessed per row activation
system.mem_ctrls.bytesPerActivate::896-1023          850      1.09%     82.29% # Bytes accessed per row activation
system.mem_ctrls.bytesPerActivate::1024-1151        13758     17.71%    100.00% # Bytes accessed per row activation
system.mem_ctrls.bytesPerActivate::total        77675                       # Bytes accessed per row activation
system.mem_ctrls.rdPerTurnAround::samples         9119                       # Reads before turning the bus around for writes
system.mem_ctrls.rdPerTurnAround::mean      27.694923                       # Reads before turning the bus around for writes
system.mem_ctrls.rdPerTurnAround::gmean     22.141671                       # Reads before turning the bus around for writes
system.mem_ctrls.rdPerTurnAround::stdev     60.135479                       # Reads before turning the bus around for writes
system.mem_ctrls.rdPerTurnAround::0-255          9092     99.70%     99.70% # Reads before turning the bus around for writes
system.mem_ctrls.rdPerTurnAround::256-511           22      0.24%     99.95% # Reads before turning the bus around for writes
[...]
system.cpu.icache.tags.occ_percent::total     0.822687                       # Average percentage of cache occupancy
system.cpu.icache.tags.occ_task_id_blocks::1024          230                       # Occupied blocks per task id
system.cpu.icache.tags.age_task_id_blocks_1024::4          230                       # Occupied blocks per task id
system.cpu.icache.tags.occ_task_id_percent::1024     0.898438                       # Percentage of cache occupancy per task id
system.cpu.icache.tags.tag_accesses          20120939                       # Number of tag accesses
system.cpu.icache.tags.data_accesses         20120939                       # Number of data accesses
system.cpu.dtb.walker.pwrStateResidencyTicks::UNDEFINED  84722007500                       # Cumulative time (in ticks) in various power states
system.cpu.dtb.stage2_mmu.stage2_tlb.walker.pwrStateResidencyTicks::UNDEFINED  84722007500                       # Cumulative time (in ticks) in various power states
system.cpu.dcache.pwrStateResidencyTicks::UNDEFINED  84722007500                       # Cumulative time (in ticks) in various power states
system.cpu.dcache.demand_hits::.cpu.data     56860715                       # number of demand (read+write) hits
system.cpu.dcache.demand_hits::total         56860715                       # number of demand (read+write) hits
system.cpu.dcache.overall_hits::.cpu.data     56860733                       # number of overall hits
system.cpu.dcache.overall_hits::total        56860733                       # number of overall hits
system.cpu.dcache.demand_misses::.cpu.data       614388                       # number of demand (read+write) misses
system.cpu.dcache.demand_misses::total         614388                       # number of demand (read+write) misses
system.cpu.dcache.overall_misses::.cpu.data       614400                       # number of overall misses
system.cpu.dcache.overall_misses::total        614400                       # number of overall misses
system.cpu.dcache.demand_miss_latency::.cpu.data  20096592500                       # number of demand (read+write) miss cycles
system.cpu.dcache.demand_miss_latency::total  20096592500                       # number of demand (read+write) miss cycles
system.cpu.dcache.overall_miss_latency::.cpu.data  20096592500                       # number of overall miss cycles
system.cpu.dcache.overall_miss_latency::total  20096592500                       # number of overall miss cycles
system.cpu.dcache.demand_accesses::.cpu.data     57475103                       # number of demand (read+write) accesses
system.cpu.dcache.demand_accesses::total     57475103                       # number of demand (read+write) accesses
system.cpu.dcache.overall_accesses::.cpu.data     57475133                       # number of overall (read+write) accesses
system.cpu.dcache.overall_accesses::total     57475133                       # number of overall (read+write) accesses
system.cpu.dcache.demand_miss_rate::.cpu.data     0.010690                       # miss rate for demand accesses
system.cpu.dcache.demand_miss_rate::total     0.010690                       # miss rate for demand accesses
system.cpu.dcache.overall_miss_rate::.cpu.data     0.010690                       # miss rate for overall accesses
system.cpu.dcache.overall_miss_rate::total     0.010690                       # miss rate for overall accesses
system.cpu.dcache.demand_avg_miss_latency::.cpu.data 32709.936555                       # average overall miss latency
system.cpu.dcache.demand_avg_miss_latency::total 32709.936555                       # average overall miss latency
system.cpu.dcache.overall_avg_miss_latency::.cpu.data 32709.297689                       # average overall miss latency
system.cpu.dcache.overall_avg_miss_latency::total 32709.297689                       # average overall miss latency
system.cpu.dcache.blocked_cycles::no_mshrs            0                       # number of cycles access was blocked
system.cpu.dcache.blocked_cycles::no_targets            0                       # number of cycles access was blocked
system.cpu.dcache.blocked::no_mshrs                 0                       # number of cycles access was blocked
system.cpu.dcache.blocked::no_targets               0                       # number of cycles access was blocked
system.cpu.dcache.avg_blocked_cycles::no_mshrs          nan                       # average number of cycles each access was blocked
system.cpu.dcache.avg_blocked_cycles::no_targets          nan                       # average number of cycles each access was blocked
system.cpu.dcache.writebacks::.writebacks       515220                       # number of writebacks
system.cpu.dcache.writebacks::total            515220                       # number of writebacks
system.cpu.dcache.demand_mshr_hits::.cpu.data        33189                       # number of demand (read+write) MSHR hits
system.cpu.dcache.demand_mshr_hits::total        33189                       # number of demand (read+write) MSHR hits
system.cpu.dcache.overall_mshr_hits::.cpu.data        33189                       # number of overall MSHR hits
system.cpu.dcache.overall_mshr_hits::total        33189                       # number of overall MSHR hits
system.cpu.dcache.demand_mshr_misses::.cpu.data       581199                       # number of demand (read+write) MSHR misses
system.cpu.dcache.demand_mshr_misses::total       581199                       # number of demand (read+write) MSHR misses
system.cpu.dcache.overall_mshr_misses::.cpu.data       581207                       # number of overall MSHR misses
system.cpu.dcache.overall_mshr_misses::total       581207                       # number of overall MSHR misses
system.cpu.dcache.demand_mshr_miss_latency::.cpu.data  17176889000                       # number of demand (read+write) MSHR miss cycles
system.cpu.dcache.demand_mshr_miss_latency::total  17176889000                       # number of demand (read+write) MSHR miss cycles
system.cpu.dcache.overall_mshr_miss_latency::.cpu.data  17177623000                       # number of overall MSHR miss cycles
system.cpu.dcache.overall_mshr_miss_latency::total  17177623000                       # number of overall MSHR miss cycles
system.cpu.dcache.demand_mshr_miss_rate::.cpu.data     0.010112                       # mshr miss rate for demand accesses
system.cpu.dcache.demand_mshr_miss_rate::total     0.010112                       # mshr miss rate for demand accesses
system.cpu.dcache.overall_mshr_miss_rate::.cpu.data     0.010112                       # mshr miss rate for overall accesses
system.cpu.dcache.overall_mshr_miss_rate::total     0.010112                       # mshr miss rate for overall accesses
system.cpu.dcache.demand_avg_mshr_miss_latency::.cpu.data 29554.230135                       # average overall mshr miss latency
system.cpu.dcache.demand_avg_mshr_miss_latency::total 29554.230135                       # average overall mshr miss latency
system.cpu.dcache.overall_avg_mshr_miss_latency::.cpu.data 29555.086226                       # average overall mshr miss latency
system.cpu.dcache.overall_avg_mshr_miss_latency::total 29555.086226                       # average overall mshr miss latency
system.cpu.dcache.replacements                 580184                       # number of replacements
system.cpu.dcache.ReadReq_hits::.cpu.data     44731207                       # number of ReadReq hits
system.cpu.dcache.ReadReq_hits::total        44731207                       # number of ReadReq hits
system.cpu.dcache.ReadReq_misses::.cpu.data       331323                       # number of ReadReq misses
system.cpu.dcache.ReadReq_misses::total        331323                       # number of ReadReq misses
system.cpu.dcache.ReadReq_miss_latency::.cpu.data   7255529000                       # number of ReadReq miss cycles
system.cpu.dcache.ReadReq_miss_latency::total   7255529000                       # number of ReadReq miss cycles
system.cpu.dcache.ReadReq_accesses::.cpu.data     45062530                       # number of ReadReq accesses(hits+misses)
system.cpu.dcache.ReadReq_accesses::total     45062530                       # number of ReadReq accesses(hits+misses)
system.cpu.dcache.ReadReq_miss_rate::.cpu.data     0.007353                       # miss rate for ReadReq accesses
system.cpu.dcache.ReadReq_miss_rate::total     0.007353                       # miss rate for ReadReq accesses
system.cpu.dcache.ReadReq_avg_miss_latency::.cpu.data 21898.657805                       # average ReadReq miss latency
system.cpu.dcache.ReadReq_avg_miss_latency::total 21898.657805                       # average ReadReq miss latency
system.cpu.dcache.ReadReq_mshr_hits::.cpu.data           28                       # number of ReadReq MSHR hits
system.cpu.dcache.ReadReq_mshr_hits::total           28                       # number of ReadReq MSHR hits
system.cpu.dcache.ReadReq_mshr_misses::.cpu.data       331295                       # number of ReadReq MSHR misses
system.cpu.dcache.ReadReq_mshr_misses::total       331295                       # number of ReadReq MSHR misses
system.cpu.dcache.ReadReq_mshr_miss_latency::.cpu.data   6922022500                       # number of ReadReq MSHR miss cycles
system.cpu.dcache.ReadReq_mshr_miss_latency::total   6922022500                       # number of ReadReq MSHR miss cycles
system.cpu.dcache.ReadReq_mshr_miss_rate::.cpu.data     0.007352                       # mshr miss rate for ReadReq accesses
system.cpu.dcache.ReadReq_mshr_miss_rate::total     0.007352                       # mshr miss rate for ReadReq accesses
system.cpu.dcache.ReadReq_avg_mshr_miss_latency::.cpu.data 20893.833291                       # average ReadReq mshr miss latency
system.cpu.dcache.ReadReq_avg_mshr_miss_latency::total 20893.833291                       # average ReadReq mshr miss latency
system.cpu.dcache.WriteReq_hits::.cpu.data     12129508                       # number of WriteReq hits
system.cpu.dcache.WriteReq_hits::total       12129508                       # number of WriteReq hits
system.cpu.dcache.WriteReq_misses::.cpu.data       283065                       # number of WriteReq misses
system.cpu.dcache.WriteReq_misses::total       283065                       # number of WriteReq misses
system.cpu.dcache.WriteReq_miss_latency::.cpu.data  12841063500                       # number of WriteReq miss cycles
system.cpu.dcache.WriteReq_miss_latency::total  12841063500                       # number of WriteReq miss cycles
system.cpu.dcache.WriteReq_accesses::.cpu.data     12412573                       # number of WriteReq accesses(hits+misses)
system.cpu.dcache.WriteReq_accesses::total     12412573                       # number of WriteReq accesses(hits+misses)
system.cpu.dcache.WriteReq_miss_rate::.cpu.data     0.022805                       # miss rate for WriteReq accesses
system.cpu.dcache.WriteReq_miss_rate::total     0.022805                       # miss rate for WriteReq accesses
system.cpu.dcache.WriteReq_avg_miss_latency::.cpu.data 45364.363309                       # average WriteReq miss latency
system.cpu.dcache.WriteReq_avg_miss_latency::total 45364.363309                       # average WriteReq miss latency
system.cpu.dcache.WriteReq_mshr_hits::.cpu.data        33161                       # number of WriteReq MSHR hits
system.cpu.dcache.WriteReq_mshr_hits::total        33161                       # number of WriteReq MSHR hits
system.cpu.dcache.WriteReq_mshr_misses::.cpu.data       249904                       # number of WriteReq MSHR misses
system.cpu.dcache.WriteReq_mshr_misses::total       249904                       # number of WriteReq MSHR misses
system.cpu.dcache.WriteReq_mshr_miss_latency::.cpu.data  10254866500                       # number of WriteReq MSHR miss cycles
system.cpu.dcache.WriteReq_mshr_miss_latency::total  10254866500                       # number of WriteReq MSHR miss cycles
system.cpu.dcache.WriteReq_mshr_miss_rate::.cpu.data     0.020133                       # mshr miss rate for WriteReq accesses
system.cpu.dcache.WriteReq_mshr_miss_rate::total     0.020133                       # mshr miss rate for WriteReq accesses
system.cpu.dcache.WriteReq_avg_mshr_miss_latency::.cpu.data 41035.223526                       # average WriteReq mshr miss latency
system.cpu.dcache.WriteReq_avg_mshr_miss_latency::total 41035.223526                       # average WriteReq mshr miss latency
system.cpu.dcache.SoftPFReq_hits::.cpu.data           18                       # number of SoftPFReq hits
system.cpu.dcache.SoftPFReq_hits::total            18                       # number of SoftPFReq hits
system.cpu.dcache.SoftPFReq_misses::.cpu.data           12                       # number of SoftPFReq misses
system.cpu.dcache.SoftPFReq_misses::total           12                       # number of SoftPFReq misses
system.cpu.dcache.SoftPFReq_accesses::.cpu.data           30                       # number of SoftPFReq accesses(hits+misses)
system.cpu.dcache.SoftPFReq_accesses::total           30                       # number of SoftPFReq accesses(hits+misses)
system.cpu.dcache.SoftPFReq_miss_rate::.cpu.data     0.400000                       # miss rate for SoftPFReq accesses
system.cpu.dcache.SoftPFReq_miss_rate::total     0.400000                       # miss rate for SoftPFReq accesses
system.cpu.dcache.SoftPFReq_mshr_misses::.cpu.data            8                       # number of SoftPFReq MSHR misses
system.cpu.dcache.SoftPFReq_mshr_misses::total            8                       # number of SoftPFReq MSHR misses
system.cpu.dcache.SoftPFReq_mshr_miss_latency::.cpu.data       734000                       # number of SoftPFReq MSHR miss cycles
system.cpu.dcache.SoftPFReq_mshr_miss_latency::total       734000                       # number of SoftPFReq MSHR miss cycles
system.cpu.dcache.SoftPFReq_mshr_miss_rate::.cpu.data     0.266667                       # mshr miss rate for SoftPFReq accesses
system.cpu.dcache.SoftPFReq_mshr_miss_rate::total     0.266667                       # mshr miss rate for SoftPFReq accesses
system.cpu.dcache.SoftPFReq_avg_mshr_miss_latency::.cpu.data        91750                       # average SoftPFReq mshr miss latency
system.cpu.dcache.SoftPFReq_avg_mshr_miss_latency::total        91750                       # average SoftPFReq mshr miss latency
system.cpu.dcache.LoadLockedReq_hits::.cpu.data           61                       # number of LoadLockedReq hits
system.cpu.dcache.LoadLockedReq_hits::total           61                       # number of LoadLockedReq hits
system.cpu.dcache.LoadLockedReq_misses::.cpu.data            1                       # number of LoadLockedReq misses
system.cpu.dcache.LoadLockedReq_misses::total            1                       # number of LoadLockedReq misses
system.cpu.dcache.LoadLockedReq_miss_latency::.cpu.data        82000                       # number of LoadLockedReq miss cycles
system.cpu.dcache.LoadLockedReq_miss_latency::total        82000                       # number of LoadLockedReq miss cycles
system.cpu.dcache.LoadLockedReq_accesses::.cpu.data           62                       # number of LoadLockedReq accesses(hits+misses)
system.cpu.dcache.LoadLockedReq_accesses::total           62                       # number of LoadLockedReq accesses(hits+misses)
system.cpu.dcache.LoadLockedReq_miss_rate::.cpu.data     0.016129                       # miss rate for LoadLockedReq accesses
system.cpu.dcache.LoadLockedReq_miss_rate::total     0.016129                       # miss rate for LoadLockedReq accesses
system.cpu.dcache.LoadLockedReq_avg_miss_latency::.cpu.data        82000                       # average LoadLockedReq miss latency
system.cpu.dcache.LoadLockedReq_avg_miss_latency::total        82000                       # average LoadLockedReq miss latency
system.cpu.dcache.LoadLockedReq_mshr_misses::.cpu.data            1                       # number of LoadLockedReq MSHR misses
system.cpu.dcache.LoadLockedReq_mshr_misses::total            1                       # number of LoadLockedReq MSHR misses
system.cpu.dcache.LoadLockedReq_mshr_miss_latency::.cpu.data        81000                       # number of LoadLockedReq MSHR miss cycles
system.cpu.dcache.LoadLockedReq_mshr_miss_latency::total        81000                       # number of LoadLockedReq MSHR miss cycles
system.cpu.dcache.LoadLockedReq_mshr_miss_rate::.cpu.data     0.016129                       # mshr miss rate for LoadLockedReq accesses
system.cpu.dcache.LoadLockedReq_mshr_miss_rate::total     0.016129                       # mshr miss rate for LoadLockedReq accesses
system.cpu.dcache.LoadLockedReq_avg_mshr_miss_latency::.cpu.data        81000                       # average LoadLockedReq mshr miss latency
system.cpu.dcache.LoadLockedReq_avg_mshr_miss_latency::total        81000                       # average LoadLockedReq mshr miss latency
system.cpu.dcache.StoreCondReq_hits::.cpu.data           62                       # number of StoreCondReq hits
system.cpu.dcache.StoreCondReq_hits::total           62                       # number of StoreCondReq hits
system.cpu.dcache.StoreCondReq_accesses::.cpu.data           62                       # number of StoreCondReq accesses(hits+misses)
system.cpu.dcache.StoreCondReq_accesses::total           62                       # number of StoreCondReq accesses(hits+misses)
system.cpu.dcache.tags.pwrStateResidencyTicks::UNDEFINED  84722007500                       # Cumulative time (in ticks) in various power states
system.cpu.dcache.tags.tagsinuse          1006.246558                       # Cycle average of tags in use
system.cpu.dcache.tags.total_refs            57442064                       # Total number of references to valid blocks.
system.cpu.dcache.tags.sampled_refs            581208                       # Sample count of references to valid blocks.
system.cpu.dcache.tags.avg_refs             98.832198                       # Average number of references to valid blocks.
system.cpu.dcache.tags.warmup_cycle            186500                       # Cycle when the warmup percentage was hit.
system.cpu.dcache.tags.occ_blocks::.cpu.data  1006.246558                       # Average occupied blocks per requestor
system.cpu.dcache.tags.occ_percent::.cpu.data     0.982663                       # Average percentage of cache occupancy
system.cpu.dcache.tags.occ_percent::total     0.982663                       # Average percentage of cache occupancy
system.cpu.dcache.tags.occ_task_id_blocks::1024         1024                       # Occupied blocks per task id
system.cpu.dcache.tags.age_task_id_blocks_1024::0           11                       # Occupied blocks per task id
system.cpu.dcache.tags.age_task_id_blocks_1024::1          159                       # Occupied blocks per task id
system.cpu.dcache.tags.age_task_id_blocks_1024::2          848                       # Occupied blocks per task id
system.cpu.dcache.tags.age_task_id_blocks_1024::3            5                       # Occupied blocks per task id
system.cpu.dcache.tags.age_task_id_blocks_1024::4            1                       # Occupied blocks per task id
system.cpu.dcache.tags.occ_task_id_percent::1024            1                       # Percentage of cache occupancy per task id
system.cpu.dcache.tags.tag_accesses         115531722                       # Number of tag accesses
system.cpu.dcache.tags.data_accesses        115531722                       # Number of data accesses
system.cpu.itb.walker.pwrStateResidencyTicks::UNDEFINED  84722007500                       # Cumulative time (in ticks) in various power states
system.cpu.itb.stage2_mmu.stage2_tlb.walker.pwrStateResidencyTicks::UNDEFINED  84722007500                       # Cumulative time (in ticks) in various power states

---------- End Simulation Statistics   ----------
