
---------- Begin Simulation Statistics ----------
final_tick                                84148777500                       # Number of ticks from beginning of simulation (restored from checkpoints and never reset)
host_inst_rate                                 383014                       # Simulator instruction rate (inst/s)
host_mem_usage                                1899944                       # Number of bytes of host memory used
host_op_rate                                   383869                       # Simulator op (including micro ops) rate (op/s)
host_seconds                                   261.09                       # Real time elapsed on the host
host_tick_rate                              322301673                       # Simulator tick rate (ticks/s)
sim_freq                                 1000000000000                       # Frequency of simulated ticks
sim_insts                                   100000001                       # Number of instructions simulated
sim_ops                                     100223084                       # Number of ops (including micro ops) simulated
sim_seconds                                  0.084149                       # Number of seconds simulated
sim_ticks                                 84148777500                       # Number of ticks simulated
system.cpu.branchPred.BTBCorrect                    0                       # Number of correct BTB predictions (this stat may not work properly.
system.cpu.branchPred.BTBHitPct             99.738657                       # BTB Hit Percentage
system.cpu.branchPred.BTBHits                 2718031                       # Number of BTB hits
system.cpu.branchPred.BTBLookups              2725153                       # Number of BTB lookups
system.cpu.branchPred.RASInCorrect                  7                       # Number of incorrect RAS predictions.
system.cpu.branchPred.condIncorrect            165796                       # Number of conditional branches incorrect
system.cpu.branchPred.condPredicted           4216385                       # Number of conditional branches predicted
system.cpu.branchPred.indirectHits                268                       # Number of indirect target hits.
system.cpu.branchPred.indirectLookups             652                       # Number of indirect predictor lookups.
system.cpu.branchPred.indirectMisses              384                       # Number of indirect misses.
system.cpu.branchPred.lookups                 5251320                       # Number of BP lookups
system.cpu.branchPred.usedRAS                  119110                       # Number of times the RAS was used to get a target.
system.cpu.branchPredindirectMispredicted          157                       # Number of mispredicted indirect branches.
system.cpu.committedInsts                   100000001                       # Number of instructions committed
system.cpu.committedOps                     100223084                       # Number of ops (including micro ops) committed
system.cpu.cpi                               1.682976                       # CPI: cycles per instruction
system.cpu.discardedOps                        449047                       # Number of ops (including micro ops) which were discarded before commit
system.cpu.dtb.accesses                             0                       # DTB accesses
system.cpu.dtb.align_faults                         0                       # Number of TLB faults due to alignment restrictions
system.cpu.dtb.domain_faults                        0                       # Number of TLB faults due to domain restrictions
system.cpu.dtb.flush_entries                        0                       # Number of entries that have been flushed from TLB
system.cpu.dtb.flush_tlb                            0                       # Number of times complete TLB was flushed
system.cpu.dtb.flush_tlb_asid                       0                       # Number of times TLB was flushed by ASID
system.cpu.dtb.flush_tlb_mva                        0                       # Number of times TLB was flushed by MVA
system.cpu.dtb.flush_tlb_mva_asid                   0                       # Number of times TLB was flushed by MVA & ASID
system.cpu.dtb.hits                                 0                       # DTB hits
system.cpu.dtb.inst_accesses                        0                       # ITB inst accesses
system.cpu.dtb.inst_hits                            0                       # ITB inst hits
system.cpu.dtb.inst_misses                          0                       # ITB inst misses
system.cpu.dtb.misses                               0                       # DTB misses
system.cpu.dtb.perms_faults                         0                       # Number of TLB faults due to permissions restrictions
system.cpu.dtb.prefetch_faults                      0                       # Number of TLB faults due to prefetch
system.cpu.dtb.read_accesses                        0                       # DTB read accesses
system.cpu.dtb.read_hits                            0                       # DTB read hits
system.cpu.dtb.read_misses                          0                       # DTB read misses
system.cpu.dtb.stage2_mmu.stage2_tlb.accesses            0                       # DTB accesses
system.cpu.dtb.stage2_mmu.stage2_tlb.align_faults            0                       # Number of TLB faults due to alignment restrictions
system.cpu.dtb.stage2_mmu.stage2_tlb.domain_faults            0                       # Number of TLB faults due to domain restrictions
system.cpu.dtb.stage2_mmu.stage2_tlb.flush_entries            0                       # Number of entries that have been flushed from TLB
system.cpu.dtb.stage2_mmu.stage2_tlb.flush_tlb            0                       # Number of times complete TLB was flushed
system.cpu.dtb.stage2_mmu.stage2_tlb.flush_tlb_asid            0                       # Number of times TLB was flushed by ASID
system.cpu.dtb.stage2_mmu.stage2_tlb.flush_tlb_mva            0                       # Number of times TLB was flushed by MVA
system.cpu.dtb.stage2_mmu.stage2_tlb.flush_tlb_mva_asid            0                       # Number of times TLB was flushed by MVA & ASID
system.cpu.dtb.stage2_mmu.stage2_tlb.hits            0                       # DTB hits
system.cpu.dtb.stage2_mmu.stage2_tlb.inst_accesses            0                       # ITB inst accesses
system.cpu.dtb.stage2_mmu.stage2_tlb.inst_hits            0                       # ITB inst hits
system.cpu.dtb.stage2_mmu.stage2_tlb.inst_misses            0                       # ITB inst misses
system.cpu.dtb.stage2_mmu.stage2_tlb.misses            0                       # DTB misses
system.cpu.dtb.stage2_mmu.stage2_tlb.perms_faults            0                       # Number of TLB faults due to permissions restrictions
system.cpu.dtb.stage2_mmu.stage2_tlb.prefetch_faults            0                       # Number of TLB faults due to prefetch
system.cpu.dtb.stage2_mmu.stage2_tlb.read_accesses            0                       # DTB read accesses
system.cpu.dtb.stage2_mmu.stage2_tlb.read_hits            0                       # DTB read hits
system.cpu.dtb.stage2_mmu.stage2_tlb.read_misses            0                       # DTB read misses
system.cpu.dtb.stage2_mmu.stage2_tlb.walker.walkRequestOrigin_Requested::Data            0                       # Table walker requests started/completed, data/inst
system.cpu.dtb.stage2_mmu.stage2_tlb.walker.walkRequestOrigin_Requested::Inst            0                       # Table walker requests started/completed, data/inst
system.cpu.dtb.stage2_mmu.stage2_tlb.walker.walkRequestOrigin_Requested::total            0                       # Table walker requests started/completed, data/inst
system.cpu.dtb.stage2_mmu.stage2_tlb.walker.walkRequestOrigin_Completed::Data            0                       # Table walker requests started/completed, data/inst
system.cpu.dtb.stage2_mmu.stage2_tlb.walker.walkRequestOrigin_Completed::Inst            0                       # Table walker requests started/completed, data/inst
system.cpu.dtb.stage2_mmu.stage2_tlb.walker.walkRequestOrigin_Completed::total            0                       # Table walker requests started/completed, data/inst
system.cpu.dtb.stage2_mmu.stage2_tlb.walker.walkRequestOrigin::total            0                       # Table walker requests started/completed, data/inst
system.cpu.dtb.stage2_mmu.stage2_tlb.walker.walks            0                       # Table walker walks requested
system.cpu.dtb.stage2_mmu.stage2_tlb.write_accesses            0                       # DTB write accesses
system.cpu.dtb.stage2_mmu.stage2_tlb.write_hits            0                       # DTB write hits
system.cpu.dtb.stage2_mmu.stage2_tlb.write_misses            0                       # DTB write misses
system.cpu.dtb.walker.walkRequestOrigin_Requested::Data            0                       # Table walker requests started/completed, data/inst
system.cpu.dtb.walker.walkRequestOrigin_Requested::Inst            0                       # Table walker requests started/completed, data/inst
system.cpu.dtb.walker.walkRequestOrigin_Requested::total            0                       # Table walker requests started/completed, data/inst
system.cpu.dtb.walker.walkRequestOrigin_Completed::Data            0                       # Table walker requests started/completed, data/inst
system.cpu.dtb.walker.walkRequestOrigin_Completed::Inst            0                       # Table walker requests started/completed, data/inst
system.cpu.dtb.walker.walkRequestOrigin_Completed::total            0                       # Table walker requests started/completed, data/inst
system.cpu.dtb.walker.walkRequestOrigin::total            0                       # Table walker requests started/completed, data/inst
system.cpu.dtb.walker.walks                         0                       # Table walker walks requested
system.cpu.dtb.write_accesses                       0                       # DTB write accesses
system.cpu.dtb.write_hits                           0                       # DTB write hits
system.cpu.dtb.write_misses                         0                       # DTB write misses
system.cpu.fetch2.amo_instructions                  0                       # Number of memory atomic instructions successfully decoded
system.cpu.fetch2.fp_instructions                   0                       # Number of floating point instructions successfully decoded
system.cpu.fetch2.int_instructions           36710589                       # Number of integer instructions successfully decoded
system.cpu.fetch2.load_instructions          48287451                       # Number of memory load instructions successfully decoded
system.cpu.fetch2.store_instructions         12607788                       # Number of memory store instructions successfully decoded
system.cpu.fetch2.vec_instructions                  0                       # Number of SIMD instructions successfully decoded
system.cpu.idleCycles                        32792718                       # Total number of cycles that the object has spent stopped
system.cpu.ipc                               0.594186                       # IPC: instructions per cycle
system.cpu.itb.accesses                             0                       # DTB accesses
system.cpu.itb.align_faults                         0                       # Number of TLB faults due to alignment restrictions
system.cpu.itb.domain_faults                        0                       # Number of TLB faults due to domain restrictions
system.cpu.itb.flush_entries                        0                       # Number of entries that have been flushed from TLB
system.cpu.itb.flush_tlb                            0                       # Number of times complete TLB was flushed
system.cpu.itb.flush_tlb_asid                       0                       # Number of times TLB was flushed by ASID
system.cpu.itb.flush_tlb_mva                        0                       # Number of times TLB was flushed by MVA
system.cpu.itb.flush_tlb_mva_asid                   0                       # Number of times TLB was flushed by MVA & ASID
system.cpu.itb.hits                                 0                       # DTB hits
system.cpu.itb.inst_accesses                        0                       # ITB inst accesses
system.cpu.itb.inst_hits                            0                       # ITB inst hits
system.cpu.itb.inst_misses                          0                       # ITB inst misses
system.cpu.itb.misses                               0                       # DTB misses
system.cpu.itb.perms_faults                         0                       # Number of TLB faults due to permissions restrictions
system.cpu.itb.prefetch_faults                      0                       # Number of TLB faults due to prefetch
system.cpu.itb.read_accesses                        0                       # DTB read accesses
system.cpu.itb.read_hits                            0                       # DTB read hits
system.cpu.itb.read_misses                          0                       # DTB read misses
system.cpu.itb.stage2_mmu.stage2_tlb.accesses            0                       # DTB accesses
system.cpu.itb.stage2_mmu.stage2_tlb.align_faults            0                       # Number of TLB faults due to alignment restrictions
system.cpu.itb.stage2_mmu.stage2_tlb.domain_faults            0                       # Number of TLB faults due to domain restrictions
system.cpu.itb.stage2_mmu.stage2_tlb.flush_entries            0                       # Number of entries that have been flushed from TLB
system.cpu.itb.stage2_mmu.stage2_tlb.flush_tlb            0                       # Number of times complete TLB was flushed
system.cpu.itb.stage2_mmu.stage2_tlb.flush_tlb_asid            0                       # Number of times TLB was flushed by ASID
system.cpu.itb.stage2_mmu.stage2_tlb.flush_tlb_mva            0                       # Number of times TLB was flushed by MVA
system.cpu.itb.stage2_mmu.stage2_tlb.flush_tlb_mva_asid            0                       # Number of times TLB was flushed by MVA & ASID
system.cpu.itb.stage2_mmu.stage2_tlb.hits            0                       # DTB hits
system.cpu.itb.stage2_mmu.stage2_tlb.inst_accesses            0                       # ITB inst accesses
system.cpu.itb.stage2_mmu.stage2_tlb.inst_hits            0                       # ITB inst hits
system.cpu.itb.stage2_mmu.stage2_tlb.inst_misses            0                       # ITB inst misses
system.cpu.itb.stage2_mmu.stage2_tlb.misses            0                       # DTB misses
system.cpu.itb.stage2_mmu.stage2_tlb.perms_faults            0                       # Number of TLB faults due to permissions restrictions
system.cpu.itb.stage2_mmu.stage2_tlb.prefetch_faults            0                       # Number of TLB faults due to prefetch
system.cpu.itb.stage2_mmu.stage2_tlb.read_accesses            0                       # DTB read accesses
system.cpu.itb.stage2_mmu.stage2_tlb.read_hits            0                       # DTB read hits
system.cpu.itb.stage2_mmu.stage2_tlb.read_misses            0                       # DTB read misses
system.cpu.itb.stage2_mmu.stage2_tlb.walker.walkRequestOrigin_Requested::Data            0                       # Table walker requests started/completed, data/inst
system.cpu.itb.stage2_mmu.stage2_tlb.walker.walkRequestOrigin_Requested::Inst            0                       # Table walker requests started/completed, data/inst
system.cpu.itb.stage2_mmu.stage2_tlb.walker.walkRequestOrigin_Requested::total            0                       # Table walker requests started/completed, data/inst
system.cpu.itb.stage2_mmu.stage2_tlb.walker.walkRequestOrigin_Completed::Data            0                       # Table walker requests started/completed, data/inst
system.cpu.itb.stage2_mmu.stage2_tlb.walker.walkRequestOrigin_Completed::Inst            0                       # Table walker requests started/completed, data/inst
system.cpu.itb.stage2_mmu.stage2_tlb.walker.walkRequestOrigin_Completed::total            0                       # Table walker requests started/completed, data/inst
system.cpu.itb.stage2_mmu.stage2_tlb.walker.walkRequestOrigin::total            0                       # Table walker requests started/completed, data/inst
system.cpu.itb.stage2_mmu.stage2_tlb.walker.walks            0                       # Table walker walks requested
system.cpu.itb.stage2_mmu.stage2_tlb.write_accesses            0                       # DTB write accesses
system.cpu.itb.stage2_mmu.stage2_tlb.write_hits            0                       # DTB write hits
system.cpu.itb.stage2_mmu.stage2_tlb.write_misses            0                       # DTB write misses
system.cpu.itb.walker.walkRequestOrigin_Requested::Data            0                       # Table walker requests started/completed, data/inst
system.cpu.itb.walker.walkRequestOrigin_Requested::Inst            0                       # Table walker requests started/completed, data/inst
system.cpu.itb.walker.walkRequestOrigin_Requested::total            0                       # Table walker requests started/completed, data/inst
system.cpu.itb.walker.walkRequestOrigin_Completed::Data            0                       # Table walker requests started/completed, data/inst
system.cpu.itb.walker.walkRequestOrigin_Completed::Inst            0                       # Table walker requests started/completed, data/inst
system.cpu.itb.walker.walkRequestOrigin_Completed::total            0                       # Table walker requests started/completed, data/inst
system.cpu.itb.walker.walkRequestOrigin::total            0                       # Table walker requests started/completed, data/inst
system.cpu.itb.walker.walks                         0                       # Table walker walks requested
system.cpu.itb.write_accesses                       0                       # DTB write accesses
system.cpu.itb.write_hits                           0                       # DTB write hits
system.cpu.itb.write_misses                         0                       # DTB write misses
system.cpu.numCycles                        168297555                       # number of cpu cycles simulated
system.cpu.numFetchSuspends                         0                       # Number of times Execute suspended instruction fetching
system.cpu.numWorkItemsCompleted                    0                       # number of work items this cpu completed
system.cpu.numWorkItemsStarted                      0                       # number of work items this cpu started
system.cpu.op_class_0::No_OpClass                   0      0.00%      0.00% # Class of committed instruction
system.cpu.op_class_0::IntAlu                40801715     40.71%     40.71% # Class of committed instruction
system.cpu.op_class_0::IntMult                  20682      0.02%     40.73% # Class of committed instruction
system.cpu.op_class_0::IntDiv                       0      0.00%     40.73% # Class of committed instruction
system.cpu.op_class_0::FloatAdd                     0      0.00%     40.73% # Class of committed instruction
system.cpu.op_class_0::FloatCmp                     0      0.00%     40.73% # Class of committed instruction
system.cpu.op_class_0::FloatCvt                     0      0.00%     40.73% # Class of committed instruction
system.cpu.op_class_0::FloatMult                    0      0.00%     40.73% # Class of committed instruction
system.cpu.op_class_0::FloatMultAcc                 0      0.00%     40.73% # Class of committed instruction
system.cpu.op_class_0::FloatDiv                     0      0.00%     40.73% # Class of committed instruction
system.cpu.op_class_0::FloatMisc                    0      0.00%     40.73% # Class of committed instruction
system.cpu.op_class_0::FloatSqrt                    0      0.00%     40.73% # Class of committed instruction
system.cpu.op_class_0::SimdAdd                      0      0.00%     40.73% # Class of committed instruction
system.cpu.op_class_0::SimdAddAcc                   0      0.00%     40.73% # Class of committed instruction
system.cpu.op_class_0::SimdAlu                      0      0.00%     40.73% # Class of committed instruction
system.cpu.op_class_0::SimdCmp                      0      0.00%     40.73% # Class of committed instruction
system.cpu.op_class_0::SimdCvt                      0      0.00%     40.73% # Class of committed instruction
system.cpu.op_class_0::SimdMisc                     0      0.00%     40.73% # Class of committed instruction
system.cpu.op_class_0::SimdMult                     0      0.00%     40.73% # Class of committed instruction
system.cpu.op_class_0::SimdMultAcc                  0      0.00%     40.73% # Class of committed instruction
system.cpu.op_class_0::SimdShift                    0      0.00%     40.73% # Class of committed instruction
system.cpu.op_class_0::SimdShiftAcc                 0      0.00%     40.73% # Class of committed instruction
system.cpu.op_class_0::SimdDiv                      0      0.00%     40.73% # Class of committed instruction
system.cpu.op_class_0::SimdSqrt                     0      0.00%     40.73% # Class of committed instruction
system.cpu.op_class_0::SimdFloatAdd                 0      0.00%     40.73% # Class of committed instruction
system.cpu.op_class_0::SimdFloatAlu                 0      0.00%     40.73% # Class of committed instruction
system.cpu.op_class_0::SimdFloatCmp                 0      0.00%     40.73% # Class of committed instruction
system.cpu.op_class_0::SimdFloatCvt                 0      0.00%     40.73% # Class of committed instruction
system.cpu.op_class_0::SimdFloatDiv                 0      0.00%     40.73% # Class of committed instruction
system.cpu.op_class_0::SimdFloatMisc              102      0.00%     40.73% # Class of committed instruction
system.cpu.op_class_0::SimdFloatMult                0      0.00%     40.73% # Class of committed instruction
system.cpu.op_class_0::SimdFloatMultAcc             0      0.00%     40.73% # Class of committed instruction
system.cpu.op_class_0::SimdFloatSqrt                0      0.00%     40.73% # Class of committed instruction
system.cpu.op_class_0::SimdReduceAdd                0      0.00%     40.73% # Class of committed instruction
system.cpu.op_class_0::SimdReduceAlu                0      0.00%     40.73% # Class of committed instruction
system.cpu.op_class_0::SimdReduceCmp                0      0.00%     40.73% # Class of committed instruction
system.cpu.op_class_0::SimdFloatReduceAdd            0      0.00%     40.73% # Class of committed instruction
system.cpu.op_class_0::SimdFloatReduceCmp            0      0.00%     40.73% # Class of committed instruction
system.cpu.op_class_0::SimdAes                      0      0.00%     40.73% # Class of committed instruction
system.cpu.op_class_0::SimdAesMix                   0      0.00%     40.73% # Class of committed instruction
system.cpu.op_class_0::SimdSha1Hash                 0      0.00%     40.73% # Class of committed instruction
system.cpu.op_class_0::SimdSha1Hash2                0      0.00%     40.73% # Class of committed instruction
system.cpu.op_class_0::SimdSha256Hash               0      0.00%     40.73% # Class of committed instruction
system.cpu.op_class_0::SimdSha256Hash2              0      0.00%     40.73% # Class of committed instruction
system.cpu.op_class_0::SimdShaSigma2                0      0.00%     40.73% # Class of committed instruction
system.cpu.op_class_0::SimdShaSigma3                0      0.00%     40.73% # Class of committed instruction
system.cpu.op_class_0::SimdPredAlu                  0      0.00%     40.73% # Class of committed instruction
system.cpu.op_class_0::MemRead               46987583     46.88%     87.61% # Class of committed instruction
system.cpu.op_class_0::MemWrite              12413002     12.39%    100.00% # Class of committed instruction
system.cpu.op_class_0::FloatMemRead                 0      0.00%    100.00% # Class of committed instruction
system.cpu.op_class_0::FloatMemWrite                0      0.00%    100.00% # Class of committed instruction
system.cpu.op_class_0::IprAccess                    0      0.00%    100.00% # Class of committed instruction
system.cpu.op_class_0::InstPrefetch                 0      0.00%    100.00% # Class of committed instruction
system.cpu.op_class_0::total                100223084                       # Class of committed instruction
system.cpu.tickCycles                       135504837                       # Number of cycles that the object actually ticked
system.cpu.workload.numSyscalls                    85                       # Number of system calls
system.membus.snoop_filter.hit_multi_requests            0                       # Number of requests hitting in the snoop filter with multiple (>1) holders of the requested data.
system.membus.snoop_filter.hit_multi_snoops            0                       # Number of snoops hitting in the snoop filter with multiple (>1) holders of the requested data.
system.membus.snoop_filter.hit_single_requests            0                       # Number of requests hitting in the snoop filter with a single holder of the requested data.
system.membus.snoop_filter.hit_single_snoops            0                       # Number of snoops hitting in the snoop filter with a single holder of the requested data.
system.membus.snoop_filter.tot_requests         98595                       # Total number of requests made to the snoop filter.
system.membus.snoop_filter.tot_snoops               0                       # Total number of snoops made to the snoop filter.
system.tol2bus.snoop_filter.hit_multi_requests          170                       # Number of requests hitting in the snoop filter with multiple (>1) holders of the requested data.
system.tol2bus.snoop_filter.hit_multi_snoops            0                       # Number of snoops hitting in the snoop filter with multiple (>1) holders of the requested data.
system.tol2bus.snoop_filter.hit_single_requests       773787                       # Number of requests hitting in the snoop filter with a single holder of the requested data.
system.tol2bus.snoop_filter.hit_single_snoops            0                       # Number of snoops hitting in the snoop filter with a single holder of the requested data.
system.tol2bus.snoop_filter.tot_requests      1548314                       # Total number of requests made to the snoop filter.
system.tol2bus.snoop_filter.tot_snoops              0                       # Total number of snoops made to the snoop filter.
system.membus.pwrStateResidencyTicks::UNDEFINED  84148777500                       # Cumulative time (in ticks) in various power states
system.membus.trans_dist::ReadResp              21780                       # Transaction distribution
system.membus.trans_dist::ReadExReq             76815                       # Transaction distribution
system.membus.trans_dist::ReadExResp            76815                       # Transaction distribution
system.membus.trans_dist::ReadSharedReq         21780                       # Transaction distribution
system.membus.pkt_count_system.l2.mem_side::system.mem_ctrls.port       197190                       # Packet count per connected master and slave (bytes)
system.membus.pkt_count::total                 197190                       # Packet count per connected master and slave (bytes)
system.membus.pkt_size_system.l2.mem_side::system.mem_ctrls.port     12620160                       # Cumulative packet size per connected master and slave (bytes)
system.membus.pkt_size::total                12620160                       # Cumulative packet size per connected master and slave (bytes)
system.membus.snoops                                0                       # Total snoops (count)
system.membus.snoopTraffic                          0                       # Total snoop traffic (bytes)
system.membus.snoop_fanout::samples             98595                       # Request fanout histogram
system.membus.snoop_fanout::mean                    0                       # Request fanout histogram
system.membus.snoop_fanout::stdev                   0                       # Request fanout histogram
system.membus.snoop_fanout::underflows              0      0.00%      0.00% # Request fanout histogram
system.membus.snoop_fanout::0                   98595    100.00%    100.00% # Request fanout histogram
system.membus.snoop_fanout::1                       0      0.00%    100.00% # Request fanout histogram
system.membus.snoop_fanout::overflows               0      0.00%    100.00% # Request fanout histogram
system.membus.snoop_fanout::min_value               0                       # Request fanout histogram
system.membus.snoop_fanout::max_value               0                       # Request fanout histogram
system.membus.snoop_fanout::total               98595                       # Request fanout histogram
system.membus.respLayer1.occupancy          919708000                       # Layer occupancy (ticks)
system.membus.respLayer1.utilization              1.1                       # Layer utilization (%)
system.membus.reqLayer0.occupancy           125022000                       # Layer occupancy (ticks)
system.membus.reqLayer0.utilization               0.1                       # Layer utilization (%)
system.tol2bus.pwrStateResidencyTicks::UNDEFINED  84148777500                       # Cumulative time (in ticks) in various power states
system.tol2bus.trans_dist::ReadResp            466155                       # Transaction distribution
system.tol2bus.trans_dist::WritebackDirty       746416                       # Transaction distribution
system.tol2bus.trans_dist::WritebackClean          211                       # Transaction distribution
system.tol2bus.trans_dist::CleanEvict           27159                       # Transaction distribution
system.tol2bus.trans_dist::ReadExReq           308373                       # Transaction distribution
system.tol2bus.trans_dist::ReadExResp          308373                       # Transaction distribution
system.tol2bus.trans_dist::ReadCleanReq           441                       # Transaction distribution
system.tol2bus.trans_dist::ReadSharedReq       465714                       # Transaction distribution
system.tol2bus.pkt_count_system.cpu.icache.mem_side::system.l2.cpu_side         1093                       # Packet count per connected master and slave (bytes)
system.tol2bus.pkt_count_system.cpu.dcache.mem_side::system.l2.cpu_side      2321749                       # Packet count per connected master and slave (bytes)
system.tol2bus.pkt_count::total               2322842                       # Packet count per connected master and slave (bytes)
system.tol2bus.pkt_size_system.cpu.icache.mem_side::system.l2.cpu_side        83456                       # Cumulative packet size per connected master and slave (bytes)
system.tol2bus.pkt_size_system.cpu.dcache.mem_side::system.l2.cpu_side    194624384                       # Cumulative packet size per connected master and slave (bytes)
system.tol2bus.pkt_size::total              194707840                       # Cumulative packet size per connected master and slave (bytes)
system.tol2bus.snoops                               0                       # Total snoops (count)
system.tol2bus.snoopTraffic                         0                       # Total snoop traffic (bytes)
system.tol2bus.snoop_fanout::samples           774528                       # Request fanout histogram
system.tol2bus.snoop_fanout::mean            0.000221                       # Request fanout histogram
system.tol2bus.snoop_fanout::stdev           0.014857                       # Request fanout histogram
system.tol2bus.snoop_fanout::underflows             0      0.00%      0.00% # Request fanout histogram
system.tol2bus.snoop_fanout::0                 774357     99.98%     99.98% # Request fanout histogram
system.tol2bus.snoop_fanout::1                    171      0.02%    100.00% # Request fanout histogram
system.tol2bus.snoop_fanout::2                      0      0.00%    100.00% # Request fanout histogram
system.tol2bus.snoop_fanout::overflows              0      0.00%    100.00% # Request fanout histogram
system.tol2bus.snoop_fanout::min_value              0                       # Request fanout histogram
system.tol2bus.snoop_fanout::max_value              1                       # Request fanout histogram
system.tol2bus.snoop_fanout::total             774528                       # Request fanout histogram
system.tol2bus.reqLayer0.occupancy         2267411000                       # Layer occupancy (ticks)
system.tol2bus.reqLayer0.utilization              2.7                       # Layer utilization (%)
system.tol2bus.respLayer1.occupancy        1935217999                       # Layer occupancy (ticks)
system.tol2bus.respLayer1.utilization             2.3                       # Layer utilization (%)
system.tol2bus.respLayer0.occupancy           1103498                       # Layer occupancy (ticks)
system.tol2bus.respLayer0.utilization             0.0                       # Layer utilization (%)
system.voltage_domain.voltage                       1                       # Voltage in Volts
system.clk_domain.clock                          1000                       # Clock period in ticks
system.l2.pwrStateResidencyTicks::UNDEFINED  84148777500                       # Cumulative time (in ticks) in various power states
system.l2.demand_hits::.cpu.inst                   58                       # number of demand (read+write) hits
system.l2.demand_hits::.cpu.data               675872                       # number of demand (read+write) hits
system.l2.demand_hits::total                   675930                       # number of demand (read+write) hits
system.l2.overall_hits::.cpu.inst                  58                       # number of overall hits
system.l2.overall_hits::.cpu.data              675872                       # number of overall hits
system.l2.overall_hits::total                  675930                       # number of overall hits
system.l2.demand_misses::.cpu.inst                383                       # number of demand (read+write) misses
system.l2.demand_misses::.cpu.data              98215                       # number of demand (read+write) misses
system.l2.demand_misses::total                  98598                       # number of demand (read+write) misses
system.l2.overall_misses::.cpu.inst               383                       # number of overall misses
system.l2.overall_misses::.cpu.data             98215                       # number of overall misses
system.l2.overall_misses::total                 98598                       # number of overall misses
system.l2.demand_miss_latency::.cpu.inst     31586500                       # number of demand (read+write) miss cycles
system.l2.demand_miss_latency::.cpu.data   8222598000                       # number of demand (read+write) miss cycles
system.l2.demand_miss_latency::total       8254184500                       # number of demand (read+write) miss cycles
system.l2.overall_miss_latency::.cpu.inst     31586500                       # number of overall miss cycles
system.l2.overall_miss_latency::.cpu.data   8222598000                       # number of overall miss cycles
system.l2.overall_miss_latency::total      8254184500                       # number of overall miss cycles
system.l2.demand_accesses::.cpu.inst              441                       # number of demand (read+write) accesses
system.l2.demand_accesses::.cpu.data           774087                       # number of demand (read+write) accesses
system.l2.demand_accesses::total               774528                       # number of demand (read+write) accesses
system.l2.overall_accesses::.cpu.inst             441                       # number of overall (read+write) accesses
system.l2.overall_accesses::.cpu.data          774087                       # number of overall (read+write) accesses
system.l2.overall_accesses::total              774528                       # number of overall (read+write) accesses
system.l2.demand_miss_rate::.cpu.inst        0.868481                       # miss rate for demand accesses
system.l2.demand_miss_rate::.cpu.data        0.126879                       # miss rate for demand accesses
system.l2.demand_miss_rate::total            0.127301                       # miss rate for demand accesses
system.l2.overall_miss_rate::.cpu.inst       0.868481                       # miss rate for overall accesses
system.l2.overall_miss_rate::.cpu.data       0.126879                       # miss rate for overall accesses
system.l2.overall_miss_rate::total           0.127301                       # miss rate for overall accesses
system.l2.demand_avg_miss_latency::.cpu.inst 82471.279373                       # average overall miss latency
system.l2.demand_avg_miss_latency::.cpu.data 83720.388943                       # average overall miss latency
system.l2.demand_avg_miss_latency::total 83715.536826                       # average overall miss latency
system.l2.overall_avg_miss_latency::.cpu.inst 82471.279373                       # average overall miss latency
system.l2.overall_avg_miss_latency::.cpu.data 83720.388943                       # average overall miss latency
system.l2.overall_avg_miss_latency::total 83715.536826                       # average overall miss latency
system.l2.blocked_cycles::no_mshrs                  0                       # number of cycles access was blocked
system.l2.blocked_cycles::no_targets                0                       # number of cycles access was blocked
system.l2.blocked::no_mshrs                         0                       # number of cycles access was blocked
system.l2.blocked::no_targets                       0                       # number of cycles access was blocked
system.l2.avg_blocked_cycles::no_mshrs            nan                       # average number of cycles each access was blocked
system.l2.avg_blocked_cycles::no_targets          nan                       # average number of cycles each access was blocked
system.l2.demand_mshr_hits::.cpu.inst               2                       # number of demand (read+write) MSHR hits
system.l2.demand_mshr_hits::.cpu.data               1                       # number of demand (read+write) MSHR hits
system.l2.demand_mshr_hits::total                   3                       # number of demand (read+write) MSHR hits
system.l2.overall_mshr_hits::.cpu.inst              2                       # number of overall MSHR hits
system.l2.overall_mshr_hits::.cpu.data              1                       # number of overall MSHR hits
system.l2.overall_mshr_hits::total                  3                       # number of overall MSHR hits
system.l2.demand_mshr_misses::.cpu.inst           381                       # number of demand (read+write) MSHR misses
system.l2.demand_mshr_misses::.cpu.data         98214                       # number of demand (read+write) MSHR misses
system.l2.demand_mshr_misses::total             98595                       # number of demand (read+write) MSHR misses
system.l2.overall_mshr_misses::.cpu.inst          381                       # number of overall MSHR misses
system.l2.overall_mshr_misses::.cpu.data        98214                       # number of overall MSHR misses
system.l2.overall_mshr_misses::total            98595                       # number of overall MSHR misses
system.l2.demand_mshr_miss_latency::.cpu.inst     27668500                       # number of demand (read+write) MSHR miss cycles
system.l2.demand_mshr_miss_latency::.cpu.data   7240385000                       # number of demand (read+write) MSHR miss cycles
system.l2.demand_mshr_miss_latency::total   7268053500                       # number of demand (read+write) MSHR miss cycles
system.l2.overall_mshr_miss_latency::.cpu.inst     27668500                       # number of overall MSHR miss cycles
system.l2.overall_mshr_miss_latency::.cpu.data   7240385000                       # number of overall MSHR miss cycles
system.l2.overall_mshr_miss_latency::total   7268053500                       # number of overall MSHR miss cycles
system.l2.demand_mshr_miss_rate::.cpu.inst     0.863946                       # mshr miss rate for demand accesses
system.l2.demand_mshr_miss_rate::.cpu.data     0.126877                       # mshr miss rate for demand accesses
system.l2.demand_mshr_miss_rate::total       0.127297                       # mshr miss rate for demand accesses
system.l2.overall_mshr_miss_rate::.cpu.inst     0.863946                       # mshr miss rate for overall accesses
system.l2.overall_mshr_miss_rate::.cpu.data     0.126877                       # mshr miss rate for overall accesses
system.l2.overall_mshr_miss_rate::total      0.127297                       # mshr miss rate for overall accesses
system.l2.demand_avg_mshr_miss_latency::.cpu.inst 72620.734908                       # average overall mshr miss latency
system.l2.demand_avg_mshr_miss_latency::.cpu.data 73720.498096                       # average overall mshr miss latency
system.l2.demand_avg_mshr_miss_latency::total 73716.248288                       # average overall mshr miss latency
system.l2.overall_avg_mshr_miss_latency::.cpu.inst 72620.734908                       # average overall mshr miss latency
system.l2.overall_avg_mshr_miss_latency::.cpu.data 73720.498096                       # average overall mshr miss latency
system.l2.overall_avg_mshr_miss_latency::total 73716.248288                       # average overall mshr miss latency
system.l2.replacements                              0                       # number of replacements
system.l2.WritebackDirty_hits::.writebacks       746416                       # number of WritebackDirty hits
system.l2.WritebackDirty_hits::total           746416                       # number of WritebackDirty hits
system.l2.WritebackDirty_accesses::.writebacks       746416                       # number of WritebackDirty accesses(hits+misses)
system.l2.WritebackDirty_accesses::total       746416                       # number of WritebackDirty accesses(hits+misses)
system.l2.WritebackClean_hits::.writebacks          200                       # number of WritebackClean hits
system.l2.WritebackClean_hits::total              200                       # number of WritebackClean hits
system.l2.WritebackClean_accesses::.writebacks          200                       # number of WritebackClean accesses(hits+misses)
system.l2.WritebackClean_accesses::total          200                       # number of WritebackClean accesses(hits+misses)
system.l2.ReadExReq_hits::.cpu.data            231558                       # number of ReadExReq hits
system.l2.ReadExReq_hits::total                231558                       # number of ReadExReq hits
system.l2.ReadExReq_misses::.cpu.data           76815                       # number of ReadExReq misses
system.l2.ReadExReq_misses::total               76815                       # number of ReadExReq misses
system.l2.ReadExReq_miss_latency::.cpu.data   6511106000                       # number of ReadExReq miss cycles
system.l2.ReadExReq_miss_latency::total    6511106000                       # number of ReadExReq miss cycles
system.l2.ReadExReq_accesses::.cpu.data        308373                       # number of ReadExReq accesses(hits+misses)
system.l2.ReadExReq_accesses::total            308373                       # number of ReadExReq accesses(hits+misses)
system.l2.ReadExReq_miss_rate::.cpu.data     0.249098                       # miss rate for ReadExReq accesses
system.l2.ReadExReq_miss_rate::total         0.249098                       # miss rate for ReadExReq accesses
system.l2.ReadExReq_avg_miss_latency::.cpu.data 84763.470676                       # average ReadExReq miss latency
system.l2.ReadExReq_avg_miss_latency::total 84763.470676                       # average ReadExReq miss latency
system.l2.ReadExReq_mshr_misses::.cpu.data        76815                       # number of ReadExReq MSHR misses
system.l2.ReadExReq_mshr_misses::total          76815                       # number of ReadExReq MSHR misses
system.l2.ReadExReq_mshr_miss_latency::.cpu.data   5742956000                       # number of ReadExReq MSHR miss cycles
system.l2.ReadExReq_mshr_miss_latency::total   5742956000                       # number of ReadExReq MSHR miss cycles
system.l2.ReadExReq_mshr_miss_rate::.cpu.data     0.249098                       # mshr miss rate for ReadExReq accesses
system.l2.ReadExReq_mshr_miss_rate::total     0.249098                       # mshr miss rate for ReadExReq accesses
system.l2.ReadExReq_avg_mshr_miss_latency::.cpu.data 74763.470676                       # average ReadExReq mshr miss latency
system.l2.ReadExReq_avg_mshr_miss_latency::total 74763.470676                       # average ReadExReq mshr miss latency
system.l2.ReadCleanReq_hits::.cpu.inst             58                       # number of ReadCleanReq hits
system.l2.ReadCleanReq_hits::total                 58                       # number of ReadCleanReq hits
system.l2.ReadCleanReq_misses::.cpu.inst          383                       # number of ReadCleanReq misses
system.l2.ReadCleanReq_misses::total              383                       # number of ReadCleanReq misses
system.l2.ReadCleanReq_miss_latency::.cpu.inst     31586500                       # number of ReadCleanReq miss cycles
system.l2.ReadCleanReq_miss_latency::total     31586500                       # number of ReadCleanReq miss cycles
system.l2.ReadCleanReq_accesses::.cpu.inst          441                       # number of ReadCleanReq accesses(hits+misses)
system.l2.ReadCleanReq_accesses::total            441                       # number of ReadCleanReq accesses(hits+misses)
system.l2.ReadCleanReq_miss_rate::.cpu.inst     0.868481                       # miss rate for ReadCleanReq accesses
system.l2.ReadCleanReq_miss_rate::total      0.868481                       # miss rate for ReadCleanReq accesses
system.l2.ReadCleanReq_avg_miss_latency::.cpu.inst 82471.279373                       # average ReadCleanReq miss latency
system.l2.ReadCleanReq_avg_miss_latency::total 82471.279373                       # average ReadCleanReq miss latency
system.l2.ReadCleanReq_mshr_hits::.cpu.inst            2                       # number of ReadCleanReq MSHR hits
system.l2.ReadCleanReq_mshr_hits::total             2                       # number of ReadCleanReq MSHR hits
system.l2.ReadCleanReq_mshr_misses::.cpu.inst          381                       # number of ReadCleanReq MSHR misses
system.l2.ReadCleanReq_mshr_misses::total          381                       # number of ReadCleanReq MSHR misses
system.l2.ReadCleanReq_mshr_miss_latency::.cpu.inst     27668500                       # number of ReadCleanReq MSHR miss cycles
system.l2.ReadCleanReq_mshr_miss_latency::total     27668500                       # number of ReadCleanReq MSHR miss cycles
system.l2.ReadCleanReq_mshr_miss_rate::.cpu.inst     0.863946                       # mshr miss rate for ReadCleanReq accesses
system.l2.ReadCleanReq_mshr_miss_rate::total     0.863946                       # mshr miss rate for ReadCleanReq accesses
system.l2.ReadCleanReq_avg_mshr_miss_latency::.cpu.inst 72620.734908                       # average ReadCleanReq mshr miss latency
system.l2.ReadCleanReq_avg_mshr_miss_latency::total 72620.734908                       # average ReadCleanReq mshr miss latency
system.l2.ReadSharedReq_hits::.cpu.data        444314                       # number of ReadSharedReq hits
system.l2.ReadSharedReq_hits::total            444314                       # number of ReadSharedReq hits
system.l2.ReadSharedReq_misses::.cpu.data        21400                       # number of ReadSharedReq misses
system.l2.ReadSharedReq_misses::total           21400                       # number of ReadSharedReq misses
system.l2.ReadSharedReq_miss_latency::.cpu.data   1711492000                       # number of ReadSharedReq miss cycles
system.l2.ReadSharedReq_miss_latency::total   1711492000                       # number of ReadSharedReq miss cycles
system.l2.ReadSharedReq_accesses::.cpu.data       465714                       # number of ReadSharedReq accesses(hits+misses)
system.l2.ReadSharedReq_accesses::total        465714                       # number of ReadSharedReq accesses(hits+misses)
system.l2.ReadSharedReq_miss_rate::.cpu.data     0.045951                       # miss rate for ReadSharedReq accesses
system.l2.ReadSharedReq_miss_rate::total     0.045951                       # miss rate for ReadSharedReq accesses
system.l2.ReadSharedReq_avg_miss_latency::.cpu.data 79976.261682                       # average ReadSharedReq miss latency
system.l2.ReadSharedReq_avg_miss_latency::total 79976.261682                       # average ReadSharedReq miss latency
system.l2.ReadSharedReq_mshr_hits::.cpu.data            1                       # number of ReadSharedReq MSHR hits
system.l2.ReadSharedReq_mshr_hits::total            1                       # number of ReadSharedReq MSHR hits
system.l2.ReadSharedReq_mshr_misses::.cpu.data        21399                       # number of ReadSharedReq MSHR misses
system.l2.ReadSharedReq_mshr_misses::total        21399                       # number of ReadSharedReq MSHR misses
system.l2.ReadSharedReq_mshr_miss_latency::.cpu.data   1497429000                       # number of ReadSharedReq MSHR miss cycles
system.l2.ReadSharedReq_mshr_miss_latency::total   1497429000                       # number of ReadSharedReq MSHR miss cycles
system.l2.ReadSharedReq_mshr_miss_rate::.cpu.data     0.045949                       # mshr miss rate for ReadSharedReq accesses
system.l2.ReadSharedReq_mshr_miss_rate::total     0.045949                       # mshr miss rate for ReadSharedReq accesses
system.l2.ReadSharedReq_avg_mshr_miss_latency::.cpu.data 69976.587691                       # average ReadSharedReq mshr miss latency
system.l2.ReadSharedReq_avg_mshr_miss_latency::total 69976.587691                       # average ReadSharedReq mshr miss latency
system.l2.tags.pwrStateResidencyTicks::UNDEFINED  84148777500                       # Cumulative time (in ticks) in various power states
system.l2.tags.tagsinuse                 78341.896364                       # Cycle average of tags in use
system.l2.tags.total_refs                     1548141                       # Total number of references to valid blocks.
system.l2.tags.sampled_refs                     98595                       # Sample count of references to valid blocks.
system.l2.tags.avg_refs                     15.702023                       # Average number of references to valid blocks.
system.l2.tags.warmup_cycle                     82000                       # Cycle when the warmup percentage was hit.
system.l2.tags.occ_blocks::.cpu.inst       329.868972                       # Average occupied blocks per requestor
system.l2.tags.occ_blocks::.cpu.data     78012.027392                       # Average occupied blocks per requestor
system.l2.tags.occ_percent::.cpu.inst        0.000079                       # Average percentage of cache occupancy
system.l2.tags.occ_percent::.cpu.data        0.018600                       # Average percentage of cache occupancy
system.l2.tags.occ_percent::total            0.018678                       # Average percentage of cache occupancy
system.l2.tags.occ_task_id_blocks::1024         98595                       # Occupied blocks per task id
system.l2.tags.age_task_id_blocks_1024::4        98595                       # Occupied blocks per task id
system.l2.tags.occ_task_id_percent::1024     0.023507                       # Percentage of cache occupancy per task id
system.l2.tags.tag_accesses                  12483747                       # Number of tag accesses
system.l2.tags.data_accesses                 12483747                       # Number of data accesses
system.cpu_voltage_domain.voltage                   1                       # Voltage in Volts
system.mem_ctrls.pwrStateResidencyTicks::UNDEFINED  84148777500                       # Cumulative time (in ticks) in various power states
system.mem_ctrls.bytes_read::.cpu.inst          48768                       # Number of bytes read from this memory
system.mem_ctrls.bytes_read::.cpu.data       12571392                       # Number of bytes read from this memory
system.mem_ctrls.bytes_read::total           12620160                       # Number of bytes read from this memory
system.mem_ctrls.bytes_inst_read::.cpu.inst        48768                       # Number of instructions bytes read from this memory
system.mem_ctrls.bytes_inst_read::total         48768                       # Number of instructions bytes read from this memory
system.mem_ctrls.num_reads::.cpu.inst             381                       # Number of read requests responded to by this memory
system.mem_ctrls.num_reads::.cpu.data           98214                       # Number of read requests responded to by this memory
system.mem_ctrls.num_reads::total               98595                       # Number of read requests responded to by this memory
system.mem_ctrls.bw_read::.cpu.inst            579545                       # Total read bandwidth from this memory (bytes/s)
system.mem_ctrls.bw_read::.cpu.data         149394826                       # Total read bandwidth from this memory (bytes/s)
system.mem_ctrls.bw_read::total             149974371                       # Total read bandwidth from this memory (bytes/s)
system.mem_ctrls.bw_inst_read::.cpu.inst       579545                       # Instruction read bandwidth from this memory (bytes/s)
system.mem_ctrls.bw_inst_read::total           579545                       # Instruction read bandwidth from this memory (bytes/s)
system.mem_ctrls.bw_total::.cpu.inst           579545                       # Total bandwidth to/from this memory (bytes/s)
system.mem_ctrls.bw_total::.cpu.data        149394826                       # Total bandwidth to/from this memory (bytes/s)
system.mem_ctrls.bw_total::total            149974371                       # Total bandwidth to/from this memory (bytes/s)
system.mem_ctrls.avgPriority_.cpu.inst::samples       762.00                       # Average QoS priority value for accepted requests
system.mem_ctrls.avgPriority_.cpu.data::samples    196428.00                       # Average QoS priority value for accepted requests
system.mem_ctrls.priorityMinLatency      0.000000018750                       # per QoS priority minimum request to response latency (s)
system.mem_ctrls.priorityMaxLatency      0.000000709000                       # per QoS priority maximum request to response latency (s)
system.mem_ctrls.numReadWriteTurnArounds            0                       # Number of turnarounds from READ to WRITE
system.mem_ctrls.numWriteReadTurnArounds            0                       # Number of turnarounds from WRITE to READ
system.mem_ctrls.numStayReadState              317365                       # Number of times bus staying in READ state
system.mem_ctrls.numStayWriteState                  0                       # Number of times bus staying in WRITE state
system.mem_ctrls.readReqs                       98595                       # Number of read requests accepted
system.mem_ctrls.writeReqs                          0                       # Number of write requests accepted
system.mem_ctrls.readBursts                    197190                       # Number of DRAM read bursts, including those serviced by the write queue
system.mem_ctrls.writeBursts                        0                       # Number of DRAM write bursts, including those merged in the write queue
system.mem_ctrls.servicedByWrQ                      0                       # Number of DRAM read bursts serviced by the write queue
system.mem_ctrls.mergedWrBursts                     0                       # Number of DRAM write bursts merged with an existing one
system.mem_ctrls.neitherReadNorWriteReqs            0                       # Number of requests that are neither read nor write
system.mem_ctrls.perBankRdBursts::0             12394                       # Per bank write bursts
system.mem_ctrls.perBankRdBursts::1             12386                       # Per bank write bursts
system.mem_ctrls.perBankRdBursts::2             12308                       # Per bank write bursts
system.mem_ctrls.perBankRdBursts::3             12258                       # Per bank write bursts
system.mem_ctrls.perBankRdBursts::4             12308                       # Per bank write bursts
system.mem_ctrls.perBankRdBursts::5             12348                       # Per bank write bursts
system.mem_ctrls.perBankRdBursts::6             12376                       # Per bank write bursts
system.mem_ctrls.perBankRdBursts::7             12322                       # Per bank write bursts
system.mem_ctrls.perBankRdBursts::8             12268                       # Per bank write bursts
system.mem_ctrls.perBankRdBursts::9             12244                       # Per bank write bursts
system.mem_ctrls.perBankRdBursts::10            12222                       # Per bank write bursts
system.mem_ctrls.perBankRdBursts::11            12282                       # Per bank write bursts
system.mem_ctrls.perBankRdBursts::12            12420                       # Per bank write bursts
system.mem_ctrls.perBankRdBursts::13            12360                       # Per bank write bursts
system.mem_ctrls.perBankRdBursts::14            12364                       # Per bank write bursts
system.mem_ctrls.perBankRdBursts::15            12330                       # Per bank write bursts
system.mem_ctrls.perBankWrBursts::0                 0                       # Per bank write bursts
system.mem_ctrls.perBankWrBursts::1                 0                       # Per bank write bursts
system.mem_ctrls.perBankWrBursts::2                 0                       # Per bank write bursts
system.mem_ctrls.perBankWrBursts::3                 0                       # Per bank write bursts
system.mem_ctrls.perBankWrBursts::4                 0                       # Per bank write bursts
system.mem_ctrls.perBankWrBursts::5                 0                       # Per bank write bursts
system.mem_ctrls.perBankWrBursts::6                 0                       # Per bank write bursts
system.mem_ctrls.perBankWrBursts::7                 0                       # Per bank write bursts
system.mem_ctrls.perBankWrBursts::8                 0                       # Per bank write bursts
system.mem_ctrls.perBankWrBursts::9                 0                       # Per bank write bursts
system.mem_ctrls.perBankWrBursts::10                0                       # Per bank write bursts
system.mem_ctrls.perBankWrBursts::11                0                       # Per bank write bursts
system.mem_ctrls.perBankWrBursts::12                0                       # Per bank write bursts
system.mem_ctrls.perBankWrBursts::13                0                       # Per bank write bursts
system.mem_ctrls.perBankWrBursts::14                0                       # Per bank write bursts
system.mem_ctrls.perBankWrBursts::15                0                       # Per bank write bursts
system.mem_ctrls.avgRdQLen                       2.04                       # Average read queue length when enqueuing
system.mem_ctrls.avgWrQLen                       0.00                       # Average write queue length when enqueuing
system.mem_ctrls.totQLat                   2241030250                       # Total ticks spent queuing
system.mem_ctrls.totBusLat                  985950000                       # Total ticks spent in databus transfers
system.mem_ctrls.totMemAccLat              5938342750                       # Total ticks spent from burst creation until serviced by the DRAM
system.mem_ctrls.avgQLat                     11364.83                       # Average queueing delay per DRAM burst
system.mem_ctrls.avgBusLat                    5000.00                       # Average bus latency per DRAM burst
system.mem_ctrls.avgMemAccLat                30114.83                       # Average memory access latency per DRAM burst
system.mem_ctrls.numRdRetry                         0                       # Number of times read queue was full causing retry
system.mem_ctrls.numWrRetry                         0                       # Number of times write queue was full causing retry
system.mem_ctrls.readRowHits                   166778                       # Number of row buffer hits during reads
system.mem_ctrls.writeRowHits                       0                       # Number of row buffer hits during writes
system.mem_ctrls.readRowHitRate                 84.58                       # Row buffer hit rate for reads
system.mem_ctrls.writeRowHitRate                  nan                       # Row buffer hit rate for writes
system.mem_ctrls.readPktSize::0                     0                       # Read request sizes (log2)
system.mem_ctrls.readPktSize::1                     0                       # Read request sizes (log2)
system.mem_ctrls.readPktSize::2                     0                       # Read request sizes (log2)
system.mem_ctrls.readPktSize::3                     0                       # Read request sizes (log2)
system.mem_ctrls.readPktSize::4                     0                       # Read request sizes (log2)
system.mem_ctrls.readPktSize::5                     0                       # Read request sizes (log2)
system.mem_ctrls.readPktSize::6                197190                       # Read request sizes (log2)
system.mem_ctrls.writePktSize::0                    0                       # Write request sizes (log2)
system.mem_ctrls.writePktSize::1                    0                       # Write request sizes (log2)
system.mem_ctrls.writePktSize::2                    0                       # Write request sizes (log2)
system.mem_ctrls.writePktSize::3                    0                       # Write request sizes (log2)
system.mem_ctrls.writePktSize::4                    0                       # Write request sizes (log2)
system.mem_ctrls.writePktSize::5                    0                       # Write request sizes (log2)
system.mem_ctrls.writePktSize::6                    0                       # Write request sizes (log2)
system.mem_ctrls.rdQLenPdf::0                   83189                       # What read queue length does an incoming req see
system.mem_ctrls.rdQLenPdf::1                   83788                       # What read queue length does an incoming req see
system.mem_ctrls.rdQLenPdf::2                   15400                       # What read queue length does an incoming req see
system.mem_ctrls.rdQLenPdf::3                   14803                       # What read queue length does an incoming req see
system.mem_ctrls.rdQLenPdf::4                       6                       # What read queue length does an incoming req see
system.mem_ctrls.rdQLenPdf::5                       4                       # What read queue length does an incoming req see
system.mem_ctrls.rdQLenPdf::6                       0                       # What read queue length does an incoming req see
system.mem_ctrls.rdQLenPdf::7                       0                       # What read queue length does an incoming req see
system.mem_ctrls.rdQLenPdf::8                       0                       # What read queue length does an incoming req see
system.mem_ctrls.rdQLenPdf::9                       0                       # What read queue length does an incoming req see
system.mem_ctrls.rdQLenPdf::10                      0                       # What read queue length does an incoming req see
system.mem_ctrls.rdQLenPdf::11                      0                       # What read queue length does an incoming req see
system.mem_ctrls.rdQLenPdf::12                      0                       # What read queue length does an incoming req see
system.mem_ctrls.rdQLenPdf::13                      0                       # What read queue length does an incoming req see
system.mem_ctrls.rdQLenPdf::14                      0                       # What read queue length does an incoming req see
system.mem_ctrls.rdQLenPdf::15                      0                       # What read queue length does an incoming req see
system.mem_ctrls.rdQLenPdf::16                      0                       # What read queue length does an incoming req see
system.mem_ctrls.rdQLenPdf::17                      0                       # What read queue length does an incoming req see
system.mem_ctrls.rdQLenPdf::18                      0                       # What read queue length does an incoming req see
system.mem_ctrls.rdQLenPdf::19                      0                       # What read queue length does an incoming req see
system.mem_ctrls.rdQLenPdf::20                      0                       # What read queue length does an incoming req see
system.mem_ctrls.rdQLenPdf::21                      0                       # What read queue length does an incoming req see
system.mem_ctrls.rdQLenPdf::22                      0                       # What read queue length does an incoming req see
system.mem_ctrls.rdQLenPdf::23                      0                       # What read queue length does an incoming req see
system.mem_ctrls.rdQLenPdf::24                      0                       # What read queue length does an incoming req see
system.mem_ctrls.rdQLenPdf::25                      0                       # What read queue length does an incoming req see
system.mem_ctrls.rdQLenPdf::26                      0                       # What read queue length does an incoming req see
system.mem_ctrls.rdQLenPdf::27                      0                       # What read queue length does an incoming req see
system.mem_ctrls.rdQLenPdf::28                      0                       # What read queue length does an incoming req see
system.mem_ctrls.rdQLenPdf::29                      0                       # What read queue length does an incoming req see
system.mem_ctrls.rdQLenPdf::30                      0                       # What read queue length does an incoming req see
system.mem_ctrls.rdQLenPdf::31                      0                       # What read queue length does an incoming req see
system.mem_ctrls.wrQLenPdf::0                       0                       # What write queue length does an incoming req see
system.mem_ctrls.wrQLenPdf::1                       0                       # What write queue length does an incoming req see
system.mem_ctrls.wrQLenPdf::2                       0                       # What write queue length does an incoming req see
system.mem_ctrls.wrQLenPdf::3                       0                       # What write queue length does an incoming req see
system.mem_ctrls.wrQLenPdf::4                       0                       # What write queue length does an incoming req see
system.mem_ctrls.wrQLenPdf::5                       0                       # What write queue length does an incoming req see
system.mem_ctrls.wrQLenPdf::6                       0                       # What write queue length does an incoming req see
system.mem_ctrls.wrQLenPdf::7                       0                       # What write queue length does an incoming req see
system.mem_ctrls.wrQLenPdf::8                       0                       # What write queue length does an incoming req see
system.mem_ctrls.wrQLenPdf::9                       0                       # What write queue length does an incoming req see
system.mem_ctrls.wrQLenPdf::10                      0                       # What write queue length does an incoming req see
system.mem_ctrls.wrQLenPdf::11                      0                       # What write queue length does an incoming req see
system.mem_ctrls.wrQLenPdf::12                      0                       # What write queue length does an incoming req see
system.mem_ctrls.wrQLenPdf::13                      0                       # What write queue length does an incoming req see
system.mem_ctrls.wrQLenPdf::14                      0                       # What write queue length does an incoming req see
system.mem_ctrls.wrQLenPdf::15                      0                       # What write queue length does an incoming req see
system.mem_ctrls.wrQLenPdf::16                      0                       # What write queue length does an incoming req see
system.mem_ctrls.wrQLenPdf::17                      0                       # What write queue length does an incoming req see
system.mem_ctrls.wrQLenPdf::18                      0                       # What write queue length does an incoming req see
system.mem_ctrls.wrQLenPdf::19                      0                       # What write queue length does an incoming req see
system.mem_ctrls.wrQLenPdf::20                      0                       # What write queue length does an incoming req see
system.mem_ctrls.wrQLenPdf::21                      0                       # What write queue length does an incoming req see
system.mem_ctrls.wrQLenPdf::22                      0                       # What write queue length does an incoming req see
system.mem_ctrls.wrQLenPdf::23                      0                       # What write queue length does an incoming req see
system.mem_ctrls.wrQLenPdf::24                      0                       # What write queue length does an incoming req see
system.mem_ctrls.wrQLenPdf::25                      0                       # What write queue length does an incoming req see
system.mem_ctrls.wrQLenPdf::26                      0                       # What write queue length does an incoming req see
system.mem_ctrls.wrQLenPdf::27                      0                       # What write queue length does an incoming req see
system.mem_ctrls.wrQLenPdf::28                      0                       # What write queue length does an incoming req see
system.mem_ctrls.wrQLenPdf::29                      0                       # What write queue length does an incoming req see
system.mem_ctrls.wrQLenPdf::30                      0                       # What write queue length does an incoming req see
system.mem_ctrls.wrQLenPdf::31                      0                       # What write queue length does an incoming req see
system.mem_ctrls.wrQLenPdf::32                      0                       # What write queue length does an incoming req see
system.mem_ctrls.wrQLenPdf::33                      0                       # What write queue length does an incoming req see
system.mem_ctrls.wrQLenPdf::34                      0                       # What write queue length does an incoming req see
system.mem_ctrls.wrQLenPdf::35                      0                       # What write queue length does an incoming req see
system.mem_ctrls.wrQLenPdf::36                      0                       # What write queue length does an incoming req see
system.mem_ctrls.wrQLenPdf::37                      0                       # What write queue length does an incoming req see
system.mem_ctrls.wrQLenPdf::38                      0                       # What write queue length does an incoming req see
system.mem_ctrls.wrQLenPdf::39                      0                       # What write queue length does an incoming req see
system.mem_ctrls.wrQLenPdf::40                      0                       # What write queue length does an incoming req see
system.mem_ctrls.wrQLenPdf::41                      0                       # What write queue length does an incoming req see
system.mem_ctrls.wrQLenPdf::42                      0                       # What write queue length does an incoming req see
system.mem_ctrls.wrQLenPdf::43                      0                       # What write queue length does an incoming req see
system.mem_ctrls.wrQLenPdf::44                      0                       # What write queue length does an incoming req see
system.mem_ctrls.wrQLenPdf::45                      0                       # What write queue length does an incoming req see
system.mem_ctrls.wrQLenPdf::46                      0                       # What write queue length does an incoming req see
system.mem_ctrls.wrQLenPdf::47                      0                       # What write queue length does an incoming req see
system.mem_ctrls.wrQLenPdf::48                      0                       # What write queue length does an incoming req see
system.mem_ctrls.wrQLenPdf::49                      0                       # What write queue length does an incoming req see
system.mem_ctrls.wrQLenPdf::50                      0                       # What write queue length does an incoming req see
system.mem_ctrls.wrQLenPdf::51                      0                       # What write queue length does an incoming req see
system.mem_ctrls.wrQLenPdf::52                      0                       # What write queue length does an incoming req see
system.mem_ctrls.wrQLenPdf::53                      0                       # What write queue length does an incoming req see
system.mem_ctrls.wrQLenPdf::54                      0                       # What write queue length does an incoming req see
system.mem_ctrls.wrQLenPdf::55                      0                       # What write queue length does an incoming req see
system.mem_ctrls.wrQLenPdf::56                      0                       # What write queue length does an incoming req see
system.mem_ctrls.wrQLenPdf::57                      0                       # What write queue length does an incoming req see
system.mem_ctrls.wrQLenPdf::58                      0                       # What write queue length does an incoming req see
system.mem_ctrls.wrQLenPdf::59                      0                       # What write queue length does an incoming req see
system.mem_ctrls.wrQLenPdf::60                      0                       # What write queue length does an incoming req see
system.mem_ctrls.wrQLenPdf::61                      0                       # What write queue length does an incoming req see
system.mem_ctrls.wrQLenPdf::62                      0                       # What write queue length does an incoming req see
system.mem_ctrls.wrQLenPdf::63                      0                       # What write queue length does an incoming req see
system.mem_ctrls.bytesPerActivate::samples        30412                       # Bytes accessed per row activation
system.mem_ctrls.bytesPerActivate::mean    414.973037                       # Bytes accessed per row activation
system.mem_ctrls.bytesPerActivate::gmean   260.644981                       # Bytes accessed per row activation
system.mem_ctrls.bytesPerActivate::stdev   395.062414                       # Bytes accessed per row activation
system.mem_ctrls.bytesPerActivate::0-127            5      0.02%      0.02% # Bytes accessed per row activation
system.mem_ctrls.bytesPerActivate::128-255        18874     62.06%     62.08% # Bytes accessed per row activation
system.mem_ctrls.bytesPerActivate::256-383          738      2.43%     64.50% # Bytes accessed per row activation
system.mem_ctrls.bytesPerActivate::384-511          352      1.16%     65.66% # Bytes accessed per row activation
system.mem_ctrls.bytesPerActivate::512-639          271      0.89%     66.55% # Bytes accessed per row activation
system.mem_ctrls.bytesPerActivate::640-767         1095      3.60%     70.15% # Bytes accessed per row activation
system.mem_ctrls.bytesPerActivate::768-895          769      2.53%     72.68% # Bytes accessed per row activation
system.mem_ctrls.bytesPerActivate::896-1023          451      1.48%     74.16% # Bytes accessed per row activation
system.mem_ctrls.bytesPerActivate::1024-1151         7857     25.84%    100.00% # Bytes accessed per row activation
system.mem_ctrls.bytesPerActivate::total        30412                       # Bytes accessed per row activation
system.mem_ctrls.bytesReadDRAM               12620160                       # Total number of bytes read from DRAM
system.mem_ctrls.bytesReadWrQ                       0                       # Total number of bytes read from write queue
system.mem_ctrls.bytesWritten                       0                       # Total number of bytes written to DRAM
system.mem_ctrls.bytesReadSys                12620160                       # Total read bytes from the system interface side
system.mem_ctrls.bytesWrittenSys                    0                       # Total written bytes from the system interface side
system.mem_ctrls.avgRdBW                       149.97                       # Average DRAM read bandwidth in MiByte/s
system.mem_ctrls.avgWrBW                         0.00                       # Average achieved write bandwidth in MiByte/s
system.mem_ctrls.avgRdBWSys                    149.97                       # Average system read bandwidth in MiByte/s
system.mem_ctrls.avgWrBWSys                      0.00                       # Average system write bandwidth in MiByte/s
system.mem_ctrls.peakBW                      12800.00                       # Theoretical peak bandwidth in MiByte/s
system.mem_ctrls.busUtil                         1.17                       # Data bus utilization in percentage
system.mem_ctrls.busUtilRead                     1.17                       # Data bus utilization in percentage for reads
system.mem_ctrls.busUtilWrite                    0.00                       # Data bus utilization in percentage for writes
system.mem_ctrls.totGap                   71573658000                       # Total gap between requests
system.mem_ctrls.avgGap                     725935.98                       # Average gap between requests
system.mem_ctrls.masterReadBytes::.cpu.inst        48768                       # Per-master bytes read from memory
system.mem_ctrls.masterReadBytes::.cpu.data     12571392                       # Per-master bytes read from memory
system.mem_ctrls.masterReadRate::.cpu.inst 579544.961303805117                       # Per-master bytes read from memory rate (Bytes/sec)
system.mem_ctrls.masterReadRate::.cpu.data 149394826.324125766754                       # Per-master bytes read from memory rate (Bytes/sec)
system.mem_ctrls.masterReadAccesses::.cpu.inst          762                       # Per-master read serviced memory accesses
system.mem_ctrls.masterReadAccesses::.cpu.data       196428                       # Per-master read serviced memory accesses
system.mem_ctrls.masterReadTotalLat::.cpu.inst     22145000                       # Per-master read total memory access latency
system.mem_ctrls.masterReadTotalLat::.cpu.data   5916197750                       # Per-master read total memory access latency
system.mem_ctrls.masterReadAvgLat::.cpu.inst     29061.68                       # Per-master read average memory access latency
system.mem_ctrls.masterReadAvgLat::.cpu.data     30118.91                       # Per-master read average memory access latency
system.mem_ctrls.pageHitRate                    84.58                       # Row buffer hit rate, read and write combined
system.mem_ctrls.rank1.actEnergy            108992100                       # Energy for activate commands per rank (pJ)
[...]
system.cpu.icache.tags.occ_percent::.cpu.inst     0.823379                       # Average percentage of cache occupancy
system.cpu.icache.tags.occ_percent::total     0.823379                       # Average percentage of cache occupancy
system.cpu.icache.tags.occ_task_id_blocks::1024          230                       # Occupied blocks per task id
system.cpu.icache.tags.age_task_id_blocks_1024::4          230                       # Occupied blocks per task id
system.cpu.icache.tags.occ_task_id_percent::1024     0.898438                       # Percentage of cache occupancy per task id
system.cpu.icache.tags.tag_accesses          20122693                       # Number of tag accesses
system.cpu.icache.tags.data_accesses         20122693                       # Number of data accesses
system.cpu.dtb.walker.pwrStateResidencyTicks::UNDEFINED  84148777500                       # Cumulative time (in ticks) in various power states
system.cpu.dtb.stage2_mmu.stage2_tlb.walker.pwrStateResidencyTicks::UNDEFINED  84148777500                       # Cumulative time (in ticks) in various power states
system.cpu.dcache.pwrStateResidencyTicks::UNDEFINED  84148777500                       # Cumulative time (in ticks) in various power states
system.cpu.dcache.demand_hits::.cpu.data     56667710                       # number of demand (read+write) hits
system.cpu.dcache.demand_hits::total         56667710                       # number of demand (read+write) hits
system.cpu.dcache.overall_hits::.cpu.data     56667728                       # number of overall hits
system.cpu.dcache.overall_hits::total        56667728                       # number of overall hits
system.cpu.dcache.demand_misses::.cpu.data       807035                       # number of demand (read+write) misses
system.cpu.dcache.demand_misses::total         807035                       # number of demand (read+write) misses
system.cpu.dcache.overall_misses::.cpu.data       807047                       # number of overall misses
system.cpu.dcache.overall_misses::total        807047                       # number of overall misses
system.cpu.dcache.demand_miss_latency::.cpu.data  19388841000                       # number of demand (read+write) miss cycles
system.cpu.dcache.demand_miss_latency::total  19388841000                       # number of demand (read+write) miss cycles
system.cpu.dcache.overall_miss_latency::.cpu.data  19388841000                       # number of overall miss cycles
system.cpu.dcache.overall_miss_latency::total  19388841000                       # number of overall miss cycles
system.cpu.dcache.demand_accesses::.cpu.data     57474745                       # number of demand (read+write) accesses
system.cpu.dcache.demand_accesses::total     57474745                       # number of demand (read+write) accesses
system.cpu.dcache.overall_accesses::.cpu.data     57474775                       # number of overall (read+write) accesses
system.cpu.dcache.overall_accesses::total     57474775                       # number of overall (read+write) accesses
system.cpu.dcache.demand_miss_rate::.cpu.data     0.014042                       # miss rate for demand accesses
system.cpu.dcache.demand_miss_rate::total     0.014042                       # miss rate for demand accesses
system.cpu.dcache.overall_miss_rate::.cpu.data     0.014042                       # miss rate for overall accesses
system.cpu.dcache.overall_miss_rate::total     0.014042                       # miss rate for overall accesses
system.cpu.dcache.demand_avg_miss_latency::.cpu.data 24024.783312                       # average overall miss latency
system.cpu.dcache.demand_avg_miss_latency::total 24024.783312                       # average overall miss latency
system.cpu.dcache.overall_avg_miss_latency::.cpu.data 24024.426087                       # average overall miss latency
system.cpu.dcache.overall_avg_miss_latency::total 24024.426087                       # average overall miss latency
system.cpu.dcache.blocked_cycles::no_mshrs            0                       # number of cycles access was blocked
system.cpu.dcache.blocked_cycles::no_targets            0                       # number of cycles access was blocked
system.cpu.dcache.blocked::no_mshrs                 0                       # number of cycles access was blocked
system.cpu.dcache.blocked::no_targets               0                       # number of cycles access was blocked
system.cpu.dcache.avg_blocked_cycles::no_mshrs          nan                       # average number of cycles each access was blocked
system.cpu.dcache.avg_blocked_cycles::no_targets          nan                       # average number of cycles each access was blocked
system.cpu.dcache.writebacks::.writebacks       746416                       # number of writebacks
system.cpu.dcache.writebacks::total            746416                       # number of writebacks
system.cpu.dcache.demand_mshr_hits::.cpu.data        32957                       # number of demand (read+write) MSHR hits
system.cpu.dcache.demand_mshr_hits::total        32957                       # number of demand (read+write) MSHR hits
system.cpu.dcache.overall_mshr_hits::.cpu.data        32957                       # number of overall MSHR hits
system.cpu.dcache.overall_mshr_hits::total        32957                       # number of overall MSHR hits
system.cpu.dcache.demand_mshr_misses::.cpu.data       774078                       # number of demand (read+write) MSHR misses
system.cpu.dcache.demand_mshr_misses::total       774078                       # number of demand (read+write) MSHR misses
system.cpu.dcache.overall_mshr_misses::.cpu.data       774086                       # number of overall MSHR misses
system.cpu.dcache.overall_mshr_misses::total       774086                       # number of overall MSHR misses
system.cpu.dcache.demand_mshr_miss_latency::.cpu.data  16486975500                       # number of demand (read+write) MSHR miss cycles
system.cpu.dcache.demand_mshr_miss_latency::total  16486975500                       # number of demand (read+write) MSHR miss cycles
system.cpu.dcache.overall_mshr_miss_latency::.cpu.data  16487709500                       # number of overall MSHR miss cycles
system.cpu.dcache.overall_mshr_miss_latency::total  16487709500                       # number of overall MSHR miss cycles
system.cpu.dcache.demand_mshr_miss_rate::.cpu.data     0.013468                       # mshr miss rate for demand accesses
system.cpu.dcache.demand_mshr_miss_rate::total     0.013468                       # mshr miss rate for demand accesses
system.cpu.dcache.overall_mshr_miss_rate::.cpu.data     0.013468                       # mshr miss rate for overall accesses
system.cpu.dcache.overall_mshr_miss_rate::total     0.013468                       # mshr miss rate for overall accesses
system.cpu.dcache.demand_avg_mshr_miss_latency::.cpu.data 21298.855542                       # average overall mshr miss latency
system.cpu.dcache.demand_avg_mshr_miss_latency::total 21298.855542                       # average overall mshr miss latency
system.cpu.dcache.overall_avg_mshr_miss_latency::.cpu.data 21299.583638                       # average overall mshr miss latency
system.cpu.dcache.overall_avg_mshr_miss_latency::total 21299.583638                       # average overall mshr miss latency
system.cpu.dcache.replacements                 773575                       # number of replacements
system.cpu.dcache.ReadReq_hits::.cpu.data     44596437                       # number of ReadReq hits
system.cpu.dcache.ReadReq_hits::total        44596437                       # number of ReadReq hits
system.cpu.dcache.ReadReq_misses::.cpu.data       465735                       # number of ReadReq misses
system.cpu.dcache.ReadReq_misses::total        465735                       # number of ReadReq misses
system.cpu.dcache.ReadReq_miss_latency::.cpu.data   7544476000                       # number of ReadReq miss cycles
system.cpu.dcache.ReadReq_miss_latency::total   7544476000                       # number of ReadReq miss cycles
system.cpu.dcache.ReadReq_accesses::.cpu.data     45062172                       # number of ReadReq accesses(hits+misses)
system.cpu.dcache.ReadReq_accesses::total     45062172                       # number of ReadReq accesses(hits+misses)
system.cpu.dcache.ReadReq_miss_rate::.cpu.data     0.010335                       # miss rate for ReadReq accesses
system.cpu.dcache.ReadReq_miss_rate::total     0.010335                       # miss rate for ReadReq accesses
system.cpu.dcache.ReadReq_avg_miss_latency::.cpu.data 16199.074581                       # average ReadReq miss latency
system.cpu.dcache.ReadReq_avg_miss_latency::total 16199.074581                       # average ReadReq miss latency
system.cpu.dcache.ReadReq_mshr_hits::.cpu.data           30                       # number of ReadReq MSHR hits
system.cpu.dcache.ReadReq_mshr_hits::total           30                       # number of ReadReq MSHR hits
system.cpu.dcache.ReadReq_mshr_misses::.cpu.data       465705                       # number of ReadReq MSHR misses
system.cpu.dcache.ReadReq_mshr_misses::total       465705                       # number of ReadReq MSHR misses
system.cpu.dcache.ReadReq_mshr_miss_latency::.cpu.data   7077719500                       # number of ReadReq MSHR miss cycles
system.cpu.dcache.ReadReq_mshr_miss_latency::total   7077719500                       # number of ReadReq MSHR miss cycles
system.cpu.dcache.ReadReq_mshr_miss_rate::.cpu.data     0.010335                       # mshr miss rate for ReadReq accesses
system.cpu.dcache.ReadReq_mshr_miss_rate::total     0.010335                       # mshr miss rate for ReadReq accesses
system.cpu.dcache.ReadReq_avg_mshr_miss_latency::.cpu.data 15197.860233                       # average ReadReq mshr miss latency
system.cpu.dcache.ReadReq_avg_mshr_miss_latency::total 15197.860233                       # average ReadReq mshr miss latency
system.cpu.dcache.WriteReq_hits::.cpu.data     12071273                       # number of WriteReq hits
system.cpu.dcache.WriteReq_hits::total       12071273                       # number of WriteReq hits
system.cpu.dcache.WriteReq_misses::.cpu.data       341300                       # number of WriteReq misses
system.cpu.dcache.WriteReq_misses::total       341300                       # number of WriteReq misses
system.cpu.dcache.WriteReq_miss_latency::.cpu.data  11844365000                       # number of WriteReq miss cycles
system.cpu.dcache.WriteReq_miss_latency::total  11844365000                       # number of WriteReq miss cycles
system.cpu.dcache.WriteReq_accesses::.cpu.data     12412573                       # number of WriteReq accesses(hits+misses)
system.cpu.dcache.WriteReq_accesses::total     12412573                       # number of WriteReq accesses(hits+misses)
system.cpu.dcache.WriteReq_miss_rate::.cpu.data     0.027496                       # miss rate for WriteReq accesses
system.cpu.dcache.WriteReq_miss_rate::total     0.027496                       # miss rate for WriteReq accesses
system.cpu.dcache.WriteReq_avg_miss_latency::.cpu.data 34703.677117                       # average WriteReq miss latency
system.cpu.dcache.WriteReq_avg_miss_latency::total 34703.677117                       # average WriteReq miss latency
system.cpu.dcache.WriteReq_mshr_hits::.cpu.data        32927                       # number of WriteReq MSHR hits
system.cpu.dcache.WriteReq_mshr_hits::total        32927                       # number of WriteReq MSHR hits
system.cpu.dcache.WriteReq_mshr_misses::.cpu.data       308373                       # number of WriteReq MSHR misses
system.cpu.dcache.WriteReq_mshr_misses::total       308373                       # number of WriteReq MSHR misses
system.cpu.dcache.WriteReq_mshr_miss_latency::.cpu.data   9409256000                       # number of WriteReq MSHR miss cycles
system.cpu.dcache.WriteReq_mshr_miss_latency::total   9409256000                       # number of WriteReq MSHR miss cycles
system.cpu.dcache.WriteReq_mshr_miss_rate::.cpu.data     0.024844                       # mshr miss rate for WriteReq accesses
system.cpu.dcache.WriteReq_mshr_miss_rate::total     0.024844                       # mshr miss rate for WriteReq accesses
system.cpu.dcache.WriteReq_avg_mshr_miss_latency::.cpu.data 30512.580544                       # average WriteReq mshr miss latency
system.cpu.dcache.WriteReq_avg_mshr_miss_latency::total 30512.580544                       # average WriteReq mshr miss latency
system.cpu.dcache.SoftPFReq_hits::.cpu.data           18                       # number of SoftPFReq hits
system.cpu.dcache.SoftPFReq_hits::total            18                       # number of SoftPFReq hits
system.cpu.dcache.SoftPFReq_misses::.cpu.data           12                       # number of SoftPFReq misses
system.cpu.dcache.SoftPFReq_misses::total           12                       # number of SoftPFReq misses
system.cpu.dcache.SoftPFReq_accesses::.cpu.data           30                       # number of SoftPFReq accesses(hits+misses)
system.cpu.dcache.SoftPFReq_accesses::total           30                       # number of SoftPFReq accesses(hits+misses)
system.cpu.dcache.SoftPFReq_miss_rate::.cpu.data     0.400000                       # miss rate for SoftPFReq accesses
system.cpu.dcache.SoftPFReq_miss_rate::total     0.400000                       # miss rate for SoftPFReq accesses
system.cpu.dcache.SoftPFReq_mshr_misses::.cpu.data            8                       # number of SoftPFReq MSHR misses
system.cpu.dcache.SoftPFReq_mshr_misses::total            8                       # number of SoftPFReq MSHR misses
system.cpu.dcache.SoftPFReq_mshr_miss_latency::.cpu.data       734000                       # number of SoftPFReq MSHR miss cycles
system.cpu.dcache.SoftPFReq_mshr_miss_latency::total       734000                       # number of SoftPFReq MSHR miss cycles
system.cpu.dcache.SoftPFReq_mshr_miss_rate::.cpu.data     0.266667                       # mshr miss rate for SoftPFReq accesses
system.cpu.dcache.SoftPFReq_mshr_miss_rate::total     0.266667                       # mshr miss rate for SoftPFReq accesses
system.cpu.dcache.SoftPFReq_avg_mshr_miss_latency::.cpu.data        91750                       # average SoftPFReq mshr miss latency
system.cpu.dcache.SoftPFReq_avg_mshr_miss_latency::total        91750                       # average SoftPFReq mshr miss latency
system.cpu.dcache.LoadLockedReq_hits::.cpu.data           61                       # number of LoadLockedReq hits
system.cpu.dcache.LoadLockedReq_hits::total           61                       # number of LoadLockedReq hits
system.cpu.dcache.LoadLockedReq_misses::.cpu.data            1                       # number of LoadLockedReq misses
system.cpu.dcache.LoadLockedReq_misses::total            1                       # number of LoadLockedReq misses
system.cpu.dcache.LoadLockedReq_miss_latency::.cpu.data        82000                       # number of LoadLockedReq miss cycles
system.cpu.dcache.LoadLockedReq_miss_latency::total        82000                       # number of LoadLockedReq miss cycles
system.cpu.dcache.LoadLockedReq_accesses::.cpu.data           62                       # number of LoadLockedReq accesses(hits+misses)
system.cpu.dcache.LoadLockedReq_accesses::total           62                       # number of LoadLockedReq accesses(hits+misses)
system.cpu.dcache.LoadLockedReq_miss_rate::.cpu.data     0.016129                       # miss rate for LoadLockedReq accesses
system.cpu.dcache.LoadLockedReq_miss_rate::total     0.016129                       # miss rate for LoadLockedReq accesses
system.cpu.dcache.LoadLockedReq_avg_miss_latency::.cpu.data        82000                       # average LoadLockedReq miss latency
system.cpu.dcache.LoadLockedReq_avg_miss_latency::total        82000                       # average LoadLockedReq miss latency
system.cpu.dcache.LoadLockedReq_mshr_misses::.cpu.data            1                       # number of LoadLockedReq MSHR misses
system.cpu.dcache.LoadLockedReq_mshr_misses::total            1                       # number of LoadLockedReq MSHR misses
system.cpu.dcache.LoadLockedReq_mshr_miss_latency::.cpu.data        81000                       # number of LoadLockedReq MSHR miss cycles
system.cpu.dcache.LoadLockedReq_mshr_miss_latency::total        81000                       # number of LoadLockedReq MSHR miss cycles
system.cpu.dcache.LoadLockedReq_mshr_miss_rate::.cpu.data     0.016129                       # mshr miss rate for LoadLockedReq accesses
system.cpu.dcache.LoadLockedReq_mshr_miss_rate::total     0.016129                       # mshr miss rate for LoadLockedReq accesses
system.cpu.dcache.LoadLockedReq_avg_mshr_miss_latency::.cpu.data        81000                       # average LoadLockedReq mshr miss latency
system.cpu.dcache.LoadLockedReq_avg_mshr_miss_latency::total        81000                       # average LoadLockedReq mshr miss latency
system.cpu.dcache.StoreCondReq_hits::.cpu.data           62                       # number of StoreCondReq hits
system.cpu.dcache.StoreCondReq_hits::total           62                       # number of StoreCondReq hits
system.cpu.dcache.StoreCondReq_accesses::.cpu.data           62                       # number of StoreCondReq accesses(hits+misses)
system.cpu.dcache.StoreCondReq_accesses::total           62                       # number of StoreCondReq accesses(hits+misses)
system.cpu.dcache.tags.pwrStateResidencyTicks::UNDEFINED  84148777500                       # Cumulative time (in ticks) in various power states
system.cpu.dcache.tags.tagsinuse           505.279100                       # Cycle average of tags in use
system.cpu.dcache.tags.total_refs            57441938                       # Total number of references to valid blocks.
system.cpu.dcache.tags.sampled_refs            774087                       # Sample count of references to valid blocks.
system.cpu.dcache.tags.avg_refs             74.206049                       # Average number of references to valid blocks.
system.cpu.dcache.tags.warmup_cycle            186500                       # Cycle when the warmup percentage was hit.
system.cpu.dcache.tags.occ_blocks::.cpu.data   505.279100                       # Average occupied blocks per requestor
system.cpu.dcache.tags.occ_percent::.cpu.data     0.986873                       # Average percentage of cache occupancy
system.cpu.dcache.tags.occ_percent::total     0.986873                       # Average percentage of cache occupancy
system.cpu.dcache.tags.occ_task_id_blocks::1024          512                       # Occupied blocks per task id
system.cpu.dcache.tags.age_task_id_blocks_1024::0           11                       # Occupied blocks per task id
system.cpu.dcache.tags.age_task_id_blocks_1024::1          159                       # Occupied blocks per task id
system.cpu.dcache.tags.age_task_id_blocks_1024::2          339                       # Occupied blocks per task id
system.cpu.dcache.tags.age_task_id_blocks_1024::3            3                       # Occupied blocks per task id
system.cpu.dcache.tags.occ_task_id_percent::1024            1                       # Percentage of cache occupancy per task id
system.cpu.dcache.tags.tag_accesses         115723885                       # Number of tag accesses
system.cpu.dcache.tags.data_accesses        115723885                       # Number of data accesses
system.cpu.itb.walker.pwrStateResidencyTicks::UNDEFINED  84148777500                       # Cumulative time (in ticks) in various power states
system.cpu.itb.stage2_mmu.stage2_tlb.walker.pwrStateResidencyTicks::UNDEFINED  84148777500                       # Cumulative time (in ticks) in various power states

---------- End Simulation Statistics   ----------
