
---------- Begin Simulation Statistics ----------
final_tick                               114524759000                       # Number of ticks from beginning of simulation (restored from checkpoints and never reset)
host_inst_rate                                 310530                       # Simulator instruction rate (inst/s)
host_mem_usage                                 683960                       # Number of bytes of host memory used
host_op_rate                                   339819                       # Simulator op (including micro ops) rate (op/s)
host_seconds                                   322.03                       # Real time elapsed on the host
host_tick_rate                              355633406                       # Simulator tick rate (ticks/s)
sim_freq                                 1000000000000                       # Frequency of simulated ticks
sim_insts                                   100000001                       # Number of instructions simulated
sim_ops                                     109431937                       # Number of ops (including micro ops) simulated
sim_seconds                                  0.114525                       # Number of seconds simulated
sim_ticks                                114524759000                       # Number of ticks simulated
system.cpu.branchPred.BTBCorrect                    0                       # Number of correct BTB predictions (this stat may not work properly.
system.cpu.branchPred.BTBHitPct             87.596990                       # BTB Hit Percentage
system.cpu.branchPred.BTBHits                 8748074                       # Number of BTB hits
system.cpu.branchPred.BTBLookups              9986729                       # Number of BTB lookups
system.cpu.branchPred.RASInCorrect                348                       # Number of incorrect RAS predictions.
system.cpu.branchPred.condIncorrect            155024                       # Number of conditional branches incorrect
system.cpu.branchPred.condPredicted          16528262                       # Number of conditional branches predicted
system.cpu.branchPred.indirectHits             300026                       # Number of indirect target hits.
system.cpu.branchPred.indirectLookups          540256                       # Number of indirect predictor lookups.
system.cpu.branchPred.indirectMisses           240230                       # Number of indirect misses.
system.cpu.branchPred.lookups                20635689                       # Number of BP lookups
system.cpu.branchPred.usedRAS                 1050691                       # Number of times the RAS was used to get a target.
system.cpu.branchPredindirectMispredicted         1210                       # Number of mispredicted indirect branches.
system.cpu.committedInsts                   100000001                       # Number of instructions committed
system.cpu.committedOps                     109431937                       # Number of ops (including micro ops) committed
system.cpu.cpi                               1.145248                       # CPI: cycles per instruction
system.cpu.discardedOps                        732478                       # Number of ops (including micro ops) which were discarded before commit
system.cpu.dtb.accesses                             0                       # DTB accesses
system.cpu.dtb.align_faults                         0                       # Number of TLB faults due to alignment restrictions
system.cpu.dtb.domain_faults                        0                       # Number of TLB faults due to domain restrictions
system.cpu.dtb.flush_entries                        0                       # Number of entries that have been flushed from TLB
system.cpu.dtb.flush_tlb                            0                       # Number of times complete TLB was flushed
system.cpu.dtb.flush_tlb_asid                       0                       # Number of times TLB was flushed by ASID
system.cpu.dtb.flush_tlb_mva                        0                       # Number of times TLB was flushed by MVA
system.cpu.dtb.flush_tlb_mva_asid                   0                       # Number of times TLB was flushed by MVA & ASID
system.cpu.dtb.hits                                 0                       # DTB hits
system.cpu.dtb.inst_accesses                        0                       # ITB inst accesses
system.cpu.dtb.inst_hits                            0                       # ITB inst hits
system.cpu.dtb.inst_misses                          0                       # ITB inst misses
system.cpu.dtb.misses                               0                       # DTB misses
system.cpu.dtb.perms_faults                         0                       # Number of TLB faults due to permissions restrictions
system.cpu.dtb.prefetch_faults                      0                       # Number of TLB faults due to prefetch
system.cpu.dtb.read_accesses                        0                       # DTB read accesses
system.cpu.dtb.read_hits                            0                       # DTB read hits
system.cpu.dtb.read_misses                          0                       # DTB read misses
system.cpu.dtb.stage2_mmu.stage2_tlb.accesses            0                       # DTB accesses
system.cpu.dtb.stage2_mmu.stage2_tlb.align_faults            0                       # Number of TLB faults due to alignment restrictions
system.cpu.dtb.stage2_mmu.stage2_tlb.domain_faults            0                       # Number of TLB faults due to domain restrictions
system.cpu.dtb.stage2_mmu.stage2_tlb.flush_entries            0                       # Number of entries that have been flushed from TLB
system.cpu.dtb.stage2_mmu.stage2_tlb.flush_tlb            0                       # Number of times complete TLB was flushed
system.cpu.dtb.stage2_mmu.stage2_tlb.flush_tlb_asid            0                       # Number of times TLB was flushed by ASID
system.cpu.dtb.stage2_mmu.stage2_tlb.flush_tlb_mva            0                       # Number of times TLB was flushed by MVA
system.cpu.dtb.stage2_mmu.stage2_tlb.flush_tlb_mva_asid            0                       # Number of times TLB was flushed by MVA & ASID
system.cpu.dtb.stage2_mmu.stage2_tlb.hits            0                       # DTB hits
system.cpu.dtb.stage2_mmu.stage2_tlb.inst_accesses            0                       # ITB inst accesses
system.cpu.dtb.stage2_mmu.stage2_tlb.inst_hits            0                       # ITB inst hits
system.cpu.dtb.stage2_mmu.stage2_tlb.inst_misses            0                       # ITB inst misses
system.cpu.dtb.stage2_mmu.stage2_tlb.misses            0                       # DTB misses
system.cpu.dtb.stage2_mmu.stage2_tlb.perms_faults            0                       # Number of TLB faults due to permissions restrictions
system.cpu.dtb.stage2_mmu.stage2_tlb.prefetch_faults            0                       # Number of TLB faults due to prefetch
system.cpu.dtb.stage2_mmu.stage2_tlb.read_accesses            0                       # DTB read accesses
system.cpu.dtb.stage2_mmu.stage2_tlb.read_hits            0                       # DTB read hits
system.cpu.dtb.stage2_mmu.stage2_tlb.read_misses            0                       # DTB read misses
system.cpu.dtb.stage2_mmu.stage2_tlb.walker.walkRequestOrigin_Requested::Data            0                       # Table walker requests started/completed, data/inst
system.cpu.dtb.stage2_mmu.stage2_tlb.walker.walkRequestOrigin_Requested::Inst            0                       # Table walker requests started/completed, data/inst
system.cpu.dtb.stage2_mmu.stage2_tlb.walker.walkRequestOrigin_Requested::total            0                       # Table walker requests started/completed, data/inst
system.cpu.dtb.stage2_mmu.stage2_tlb.walker.walkRequestOrigin_Completed::Data            0                       # Table walker requests started/completed, data/inst
system.cpu.dtb.stage2_mmu.stage2_tlb.walker.walkRequestOrigin_Completed::Inst            0                       # Table walker requests started/completed, data/inst
system.cpu.dtb.stage2_mmu.stage2_tlb.walker.walkRequestOrigin_Completed::total            0                       # Table walker requests started/completed, data/inst
system.cpu.dtb.stage2_mmu.stage2_tlb.walker.walkRequestOrigin::total            0                       # Table walker requests started/completed, data/inst
system.cpu.dtb.stage2_mmu.stage2_tlb.walker.walks            0                       # Table walker walks requested
system.cpu.dtb.stage2_mmu.stage2_tlb.write_accesses            0                       # DTB write accesses
system.cpu.dtb.stage2_mmu.stage2_tlb.write_hits            0                       # DTB write hits
system.cpu.dtb.stage2_mmu.stage2_tlb.write_misses            0                       # DTB write misses
system.cpu.dtb.walker.walkRequestOrigin_Requested::Data            0                       # Table walker requests started/completed, data/inst
system.cpu.dtb.walker.walkRequestOrigin_Requested::Inst            0                       # Table walker requests started/completed, data/inst
system.cpu.dtb.walker.walkRequestOrigin_Requested::total            0                       # Table walker requests started/completed, data/inst
system.cpu.dtb.walker.walkRequestOrigin_Completed::Data            0                       # Table walker requests started/completed, data/inst
system.cpu.dtb.walker.walkRequestOrigin_Completed::Inst            0                       # Table walker requests started/completed, data/inst
system.cpu.dtb.walker.walkRequestOrigin_Completed::total            0                       # Table walker requests started/completed, data/inst
system.cpu.dtb.walker.walkRequestOrigin::total            0                       # Table walker requests started/completed, data/inst
system.cpu.dtb.walker.walks                         0                       # Table walker walks requested
system.cpu.dtb.write_accesses                       0                       # DTB write accesses
system.cpu.dtb.write_hits                           0                       # DTB write hits
system.cpu.dtb.write_misses                         0                       # DTB write misses
system.cpu.fetch2.amo_instructions                  0                       # Number of memory atomic instructions successfully decoded
system.cpu.fetch2.fp_instructions                   0                       # Number of floating point instructions successfully decoded
system.cpu.fetch2.int_instructions           49964877                       # Number of integer instructions successfully decoded
system.cpu.fetch2.load_instructions          17199380                       # Number of memory load instructions successfully decoded
system.cpu.fetch2.store_instructions         10036335                       # Number of memory store instructions successfully decoded
system.cpu.fetch2.vec_instructions                  0                       # Number of SIMD instructions successfully decoded
system.cpu.idleCycles                         3836591                       # Total number of cycles that the object has spent stopped
system.cpu.ipc                               0.873174                       # IPC: instructions per cycle
system.cpu.itb.accesses                             0                       # DTB accesses
system.cpu.itb.align_faults                         0                       # Number of TLB faults due to alignment restrictions
system.cpu.itb.domain_faults                        0                       # Number of TLB faults due to domain restrictions
system.cpu.itb.flush_entries                        0                       # Number of entries that have been flushed from TLB
system.cpu.itb.flush_tlb                            0                       # Number of times complete TLB was flushed
system.cpu.itb.flush_tlb_asid                       0                       # Number of times TLB was flushed by ASID
system.cpu.itb.flush_tlb_mva                        0                       # Number of times TLB was flushed by MVA
system.cpu.itb.flush_tlb_mva_asid                   0                       # Number of times TLB was flushed by MVA & ASID
system.cpu.itb.hits                                 0                       # DTB hits
system.cpu.itb.inst_accesses                        0                       # ITB inst accesses
system.cpu.itb.inst_hits                            0                       # ITB inst hits
system.cpu.itb.inst_misses                          0                       # ITB inst misses
system.cpu.itb.misses                               0                       # DTB misses
system.cpu.itb.perms_faults                         0                       # Number of TLB faults due to permissions restrictions
system.cpu.itb.prefetch_faults                      0                       # Number of TLB faults due to prefetch
system.cpu.itb.read_accesses                        0                       # DTB read accesses
system.cpu.itb.read_hits                            0                       # DTB read hits
system.cpu.itb.read_misses                          0                       # DTB read misses
system.cpu.itb.stage2_mmu.stage2_tlb.accesses            0                       # DTB accesses
system.cpu.itb.stage2_mmu.stage2_tlb.align_faults            0                       # Number of TLB faults due to alignment restrictions
system.cpu.itb.stage2_mmu.stage2_tlb.domain_faults            0                       # Number of TLB faults due to domain restrictions
system.cpu.itb.stage2_mmu.stage2_tlb.flush_entries            0                       # Number of entries that have been flushed from TLB
system.cpu.itb.stage2_mmu.stage2_tlb.flush_tlb            0                       # Number of times complete TLB was flushed
system.cpu.itb.stage2_mmu.stage2_tlb.flush_tlb_asid            0                       # Number of times TLB was flushed by ASID
system.cpu.itb.stage2_mmu.stage2_tlb.flush_tlb_mva            0                       # Number of times TLB was flushed by MVA
system.cpu.itb.stage2_mmu.stage2_tlb.flush_tlb_mva_asid            0                       # Number of times TLB was flushed by MVA & ASID
system.cpu.itb.stage2_mmu.stage2_tlb.hits            0                       # DTB hits
system.cpu.itb.stage2_mmu.stage2_tlb.inst_accesses            0                       # ITB inst accesses
system.cpu.itb.stage2_mmu.stage2_tlb.inst_hits            0                       # ITB inst hits
system.cpu.itb.stage2_mmu.stage2_tlb.inst_misses            0                       # ITB inst misses
system.cpu.itb.stage2_mmu.stage2_tlb.misses            0                       # DTB misses
system.cpu.itb.stage2_mmu.stage2_tlb.perms_faults            0                       # Number of TLB faults due to permissions restrictions
system.cpu.itb.stage2_mmu.stage2_tlb.prefetch_faults            0                       # Number of TLB faults due to prefetch
system.cpu.itb.stage2_mmu.stage2_tlb.read_accesses            0                       # DTB read accesses
system.cpu.itb.stage2_mmu.stage2_tlb.read_hits            0                       # DTB read hits
system.cpu.itb.stage2_mmu.stage2_tlb.read_misses            0                       # DTB read misses
system.cpu.itb.stage2_mmu.stage2_tlb.walker.walkRequestOrigin_Requested::Data            0                       # Table walker requests started/completed, data/inst
system.cpu.itb.stage2_mmu.stage2_tlb.walker.walkRequestOrigin_Requested::Inst            0                       # Table walker requests started/completed, data/inst
system.cpu.itb.stage2_mmu.stage2_tlb.walker.walkRequestOrigin_Requested::total            0                       # Table walker requests started/completed, data/inst
system.cpu.itb.stage2_mmu.stage2_tlb.walker.walkRequestOrigin_Completed::Data            0                       # Table walker requests started/completed, data/inst
system.cpu.itb.stage2_mmu.stage2_tlb.walker.walkRequestOrigin_Completed::Inst            0                       # Table walker requests started/completed, data/inst
system.cpu.itb.stage2_mmu.stage2_tlb.walker.walkRequestOrigin_Completed::total            0                       # Table walker requests started/completed, data/inst
system.cpu.itb.stage2_mmu.stage2_tlb.walker.walkRequestOrigin::total            0                       # Table walker requests started/completed, data/inst
system.cpu.itb.stage2_mmu.stage2_tlb.walker.walks            0                       # Table walker walks requested
system.cpu.itb.stage2_mmu.stage2_tlb.write_accesses            0                       # DTB write accesses
system.cpu.itb.stage2_mmu.stage2_tlb.write_hits            0                       # DTB write hits
system.cpu.itb.stage2_mmu.stage2_tlb.write_misses            0                       # DTB write misses
system.cpu.itb.walker.walkRequestOrigin_Requested::Data            0                       # Table walker requests started/completed, data/inst
system.cpu.itb.walker.walkRequestOrigin_Requested::Inst            0                       # Table walker requests started/completed, data/inst
system.cpu.itb.walker.walkRequestOrigin_Requested::total            0                       # Table walker requests started/completed, data/inst
system.cpu.itb.walker.walkRequestOrigin_Completed::Data            0                       # Table walker requests started/completed, data/inst
system.cpu.itb.walker.walkRequestOrigin_Completed::Inst            0                       # Table walker requests started/completed, data/inst
system.cpu.itb.walker.walkRequestOrigin_Completed::total            0                       # Table walker requests started/completed, data/inst
system.cpu.itb.walker.walkRequestOrigin::total            0                       # Table walker requests started/completed, data/inst
system.cpu.itb.walker.walks                         0                       # Table walker walks requested
system.cpu.itb.write_accesses                       0                       # DTB write accesses
system.cpu.itb.write_hits                           0                       # DTB write hits
system.cpu.itb.write_misses                         0                       # DTB write misses
system.cpu.numCycles                        114524759                       # number of cpu cycles simulated
system.cpu.numFetchSuspends                         0                       # Number of times Execute suspended instruction fetching
system.cpu.numWorkItemsCompleted                    0                       # number of work items this cpu completed
system.cpu.numWorkItemsStarted                      0                       # number of work items this cpu started
system.cpu.op_class_0::No_OpClass                   0      0.00%      0.00% # Class of committed instruction
system.cpu.op_class_0::IntAlu                72955303     66.67%     66.67% # Class of committed instruction
system.cpu.op_class_0::IntMult                 568365      0.52%     67.19% # Class of committed instruction
system.cpu.op_class_0::IntDiv                       0      0.00%     67.19% # Class of committed instruction
system.cpu.op_class_0::FloatAdd                     0      0.00%     67.19% # Class of committed instruction
system.cpu.op_class_0::FloatCmp                     0      0.00%     67.19% # Class of committed instruction
system.cpu.op_class_0::FloatCvt                     0      0.00%     67.19% # Class of committed instruction
system.cpu.op_class_0::FloatMult                    0      0.00%     67.19% # Class of committed instruction
system.cpu.op_class_0::FloatMultAcc                 0      0.00%     67.19% # Class of committed instruction
system.cpu.op_class_0::FloatDiv                     0      0.00%     67.19% # Class of committed instruction
system.cpu.op_class_0::FloatMisc                    0      0.00%     67.19% # Class of committed instruction
system.cpu.op_class_0::FloatSqrt                    0      0.00%     67.19% # Class of committed instruction
system.cpu.op_class_0::SimdAdd                 241252      0.22%     67.41% # Class of committed instruction
system.cpu.op_class_0::SimdAddAcc                   0      0.00%     67.41% # Class of committed instruction
system.cpu.op_class_0::SimdAlu                 154720      0.14%     67.55% # Class of committed instruction
system.cpu.op_class_0::SimdCmp                 120626      0.11%     67.66% # Class of committed instruction
system.cpu.op_class_0::SimdCvt                      0      0.00%     67.66% # Class of committed instruction
system.cpu.op_class_0::SimdMisc                 44544      0.04%     67.70% # Class of committed instruction
system.cpu.op_class_0::SimdMult                     0      0.00%     67.70% # Class of committed instruction
system.cpu.op_class_0::SimdMultAcc                  0      0.00%     67.70% # Class of committed instruction
system.cpu.op_class_0::SimdShift                    0      0.00%     67.70% # Class of committed instruction
system.cpu.op_class_0::SimdShiftAcc                 0      0.00%     67.70% # Class of committed instruction
system.cpu.op_class_0::SimdDiv                      0      0.00%     67.70% # Class of committed instruction
system.cpu.op_class_0::SimdSqrt                     0      0.00%     67.70% # Class of committed instruction
system.cpu.op_class_0::SimdFloatAdd                 0      0.00%     67.70% # Class of committed instruction
system.cpu.op_class_0::SimdFloatAlu                 0      0.00%     67.70% # Class of committed instruction
system.cpu.op_class_0::SimdFloatCmp                 0      0.00%     67.70% # Class of committed instruction
system.cpu.op_class_0::SimdFloatCvt                 0      0.00%     67.70% # Class of committed instruction
system.cpu.op_class_0::SimdFloatDiv                 0      0.00%     67.70% # Class of committed instruction
system.cpu.op_class_0::SimdFloatMisc           166465      0.15%     67.85% # Class of committed instruction
system.cpu.op_class_0::SimdFloatMult                0      0.00%     67.85% # Class of committed instruction
system.cpu.op_class_0::SimdFloatMultAcc             0      0.00%     67.85% # Class of committed instruction
system.cpu.op_class_0::SimdFloatSqrt                0      0.00%     67.85% # Class of committed instruction
system.cpu.op_class_0::SimdReduceAdd                0      0.00%     67.85% # Class of committed instruction
system.cpu.op_class_0::SimdReduceAlu                0      0.00%     67.85% # Class of committed instruction
system.cpu.op_class_0::SimdReduceCmp                0      0.00%     67.85% # Class of committed instruction
system.cpu.op_class_0::SimdFloatReduceAdd            0      0.00%     67.85% # Class of committed instruction
system.cpu.op_class_0::SimdFloatReduceCmp            0      0.00%     67.85% # Class of committed instruction
system.cpu.op_class_0::SimdAes                      0      0.00%     67.85% # Class of committed instruction
system.cpu.op_class_0::SimdAesMix                   0      0.00%     67.85% # Class of committed instruction
system.cpu.op_class_0::SimdSha1Hash                 0      0.00%     67.85% # Class of committed instruction
system.cpu.op_class_0::SimdSha1Hash2                0      0.00%     67.85% # Class of committed instruction
system.cpu.op_class_0::SimdSha256Hash               0      0.00%     67.85% # Class of committed instruction
system.cpu.op_class_0::SimdSha256Hash2              0      0.00%     67.85% # Class of committed instruction
system.cpu.op_class_0::SimdShaSigma2                0      0.00%     67.85% # Class of committed instruction
system.cpu.op_class_0::SimdShaSigma3                0      0.00%     67.85% # Class of committed instruction
system.cpu.op_class_0::SimdPredAlu                  0      0.00%     67.85% # Class of committed instruction
system.cpu.op_class_0::MemRead               20646465     18.87%     86.72% # Class of committed instruction
system.cpu.op_class_0::MemWrite              14534197     13.28%    100.00% # Class of committed instruction
system.cpu.op_class_0::FloatMemRead                 0      0.00%    100.00% # Class of committed instruction
system.cpu.op_class_0::FloatMemWrite                0      0.00%    100.00% # Class of committed instruction
system.cpu.op_class_0::IprAccess                    0      0.00%    100.00% # Class of committed instruction
system.cpu.op_class_0::InstPrefetch                 0      0.00%    100.00% # Class of committed instruction
system.cpu.op_class_0::total                109431937                       # Class of committed instruction
system.cpu.tickCycles                       110688168                       # Number of cycles that the object actually ticked
system.cpu.workload.numSyscalls                    86                       # Number of system calls
system.membus.snoop_filter.hit_multi_requests            0                       # Number of requests hitting in the snoop filter with multiple (>1) holders of the requested data.
system.membus.snoop_filter.hit_multi_snoops            0                       # Number of snoops hitting in the snoop filter with multiple (>1) holders of the requested data.
system.membus.snoop_filter.hit_single_requests        38515                       # Number of requests hitting in the snoop filter with a single holder of the requested data.
system.membus.snoop_filter.hit_single_snoops            0                       # Number of snoops hitting in the snoop filter with a single holder of the requested data.
system.membus.snoop_filter.tot_requests         85692                       # Total number of requests made to the snoop filter.
system.membus.snoop_filter.tot_snoops               0                       # Total number of snoops made to the snoop filter.
system.tol2bus.snoop_filter.hit_multi_requests         1156                       # Number of requests hitting in the snoop filter with multiple (>1) holders of the requested data.
system.tol2bus.snoop_filter.hit_multi_snoops           26                       # Number of snoops hitting in the snoop filter with multiple (>1) holders of the requested data.
system.tol2bus.snoop_filter.hit_single_requests        61108                       # Number of requests hitting in the snoop filter with a single holder of the requested data.
system.tol2bus.snoop_filter.hit_single_snoops         4240                       # Number of snoops hitting in the snoop filter with a single holder of the requested data.
system.tol2bus.snoop_filter.tot_requests       124757                       # Total number of requests made to the snoop filter.
system.tol2bus.snoop_filter.tot_snoops           4266                       # Total number of snoops made to the snoop filter.
system.membus.pwrStateResidencyTicks::UNDEFINED 114524759000                       # Cumulative time (in ticks) in various power states
system.membus.trans_dist::ReadResp               8392                       # Transaction distribution
system.membus.trans_dist::WritebackDirty        37683                       # Transaction distribution
system.membus.trans_dist::CleanEvict              805                       # Transaction distribution
system.membus.trans_dist::ReadExReq             38812                       # Transaction distribution
system.membus.trans_dist::ReadExResp            38812                       # Transaction distribution
system.membus.trans_dist::ReadSharedReq          8392                       # Transaction distribution
system.membus.pkt_count_system.l2.mem_side::system.mem_ctrls.port       132896                       # Packet count per connected master and slave (bytes)
system.membus.pkt_count::total                 132896                       # Packet count per connected master and slave (bytes)
system.membus.pkt_size_system.l2.mem_side::system.mem_ctrls.port      5432768                       # Cumulative packet size per connected master and slave (bytes)
system.membus.pkt_size::total                 5432768                       # Cumulative packet size per connected master and slave (bytes)
system.membus.snoops                                0                       # Total snoops (count)
system.membus.snoopTraffic                          0                       # Total snoop traffic (bytes)
system.membus.snoop_fanout::samples             47204                       # Request fanout histogram
system.membus.snoop_fanout::mean                    0                       # Request fanout histogram
system.membus.snoop_fanout::stdev                   0                       # Request fanout histogram
system.membus.snoop_fanout::underflows              0      0.00%      0.00% # Request fanout histogram
system.membus.snoop_fanout::0                   47204    100.00%    100.00% # Request fanout histogram
system.membus.snoop_fanout::1                       0      0.00%    100.00% # Request fanout histogram
system.membus.snoop_fanout::overflows               0      0.00%    100.00% # Request fanout histogram
system.membus.snoop_fanout::min_value               0                       # Request fanout histogram
system.membus.snoop_fanout::max_value               0                       # Request fanout histogram
system.membus.snoop_fanout::total               47204                       # Request fanout histogram
system.membus.respLayer1.occupancy          255165750                       # Layer occupancy (ticks)
system.membus.respLayer1.utilization              0.2                       # Layer utilization (%)
system.membus.reqLayer0.occupancy           236424000                       # Layer occupancy (ticks)
system.membus.reqLayer0.utilization               0.2                       # Layer utilization (%)
system.tol2bus.pwrStateResidencyTicks::UNDEFINED 114524759000                       # Cumulative time (in ticks) in various power states
system.tol2bus.trans_dist::ReadResp             22550                       # Transaction distribution
system.tol2bus.trans_dist::WritebackDirty        90922                       # Transaction distribution
system.tol2bus.trans_dist::WritebackClean           25                       # Transaction distribution
system.tol2bus.trans_dist::CleanEvict           12324                       # Transaction distribution
system.tol2bus.trans_dist::ReadExReq            41103                       # Transaction distribution
system.tol2bus.trans_dist::ReadExResp           41103                       # Transaction distribution
system.tol2bus.trans_dist::ReadCleanReq           526                       # Transaction distribution
system.tol2bus.trans_dist::ReadSharedReq        22024                       # Transaction distribution
system.tol2bus.pkt_count_system.cpu.icache.mem_side::system.l2.cpu_side         1077                       # Packet count per connected master and slave (bytes)
system.tol2bus.pkt_count_system.cpu.dcache.mem_side::system.l2.cpu_side       187333                       # Packet count per connected master and slave (bytes)
system.tol2bus.pkt_count::total                188410                       # Packet count per connected master and slave (bytes)
system.tol2bus.pkt_size_system.cpu.icache.mem_side::system.l2.cpu_side        35264                       # Cumulative packet size per connected master and slave (bytes)
system.tol2bus.pkt_size_system.cpu.dcache.mem_side::system.l2.cpu_side      7447424                       # Cumulative packet size per connected master and slave (bytes)
system.tol2bus.pkt_size::total                7482688                       # Cumulative packet size per connected master and slave (bytes)
system.tol2bus.snoops                           42167                       # Total snoops (count)
system.tol2bus.snoopTraffic                   2411712                       # Total snoop traffic (bytes)
system.tol2bus.snoop_fanout::samples           105820                       # Request fanout histogram
system.tol2bus.snoop_fanout::mean            0.051521                       # Request fanout histogram
system.tol2bus.snoop_fanout::stdev           0.222169                       # Request fanout histogram
system.tol2bus.snoop_fanout::underflows             0      0.00%      0.00% # Request fanout histogram
system.tol2bus.snoop_fanout::0                 100394     94.87%     94.87% # Request fanout histogram
system.tol2bus.snoop_fanout::1                   5400      5.10%     99.98% # Request fanout histogram
system.tol2bus.snoop_fanout::2                     26      0.02%    100.00% # Request fanout histogram
system.tol2bus.snoop_fanout::overflows              0      0.00%    100.00% # Request fanout histogram
system.tol2bus.snoop_fanout::min_value              0                       # Request fanout histogram
system.tol2bus.snoop_fanout::max_value              2                       # Request fanout histogram
system.tol2bus.snoop_fanout::total             105820                       # Request fanout histogram
system.tol2bus.reqLayer0.occupancy          231285000                       # Layer occupancy (ticks)
system.tol2bus.reqLayer0.utilization              0.2                       # Layer utilization (%)
system.tol2bus.respLayer1.occupancy         189385995                       # Layer occupancy (ticks)
system.tol2bus.respLayer1.utilization             0.2                       # Layer utilization (%)
system.tol2bus.respLayer0.occupancy           1578999                       # Layer occupancy (ticks)
system.tol2bus.respLayer0.utilization             0.0                       # Layer utilization (%)
system.voltage_domain.voltage                       1                       # Voltage in Volts
system.clk_domain.clock                          1000                       # Clock period in ticks
system.l2.pwrStateResidencyTicks::UNDEFINED 114524759000                       # Cumulative time (in ticks) in various power states
system.l2.demand_hits::.cpu.inst                   14                       # number of demand (read+write) hits
system.l2.demand_hits::.cpu.data                16429                       # number of demand (read+write) hits
system.l2.demand_hits::total                    16443                       # number of demand (read+write) hits
system.l2.overall_hits::.cpu.inst                  14                       # number of overall hits
system.l2.overall_hits::.cpu.data               16429                       # number of overall hits
system.l2.overall_hits::total                   16443                       # number of overall hits
system.l2.demand_misses::.cpu.inst                512                       # number of demand (read+write) misses
system.l2.demand_misses::.cpu.data              46698                       # number of demand (read+write) misses
system.l2.demand_misses::total                  47210                       # number of demand (read+write) misses
system.l2.overall_misses::.cpu.inst               512                       # number of overall misses
system.l2.overall_misses::.cpu.data             46698                       # number of overall misses
system.l2.overall_misses::total                 47210                       # number of overall misses
system.l2.demand_miss_latency::.cpu.inst     49906000                       # number of demand (read+write) miss cycles
system.l2.demand_miss_latency::.cpu.data   5084196000                       # number of demand (read+write) miss cycles
system.l2.demand_miss_latency::total       5134102000                       # number of demand (read+write) miss cycles
system.l2.overall_miss_latency::.cpu.inst     49906000                       # number of overall miss cycles
system.l2.overall_miss_latency::.cpu.data   5084196000                       # number of overall miss cycles
system.l2.overall_miss_latency::total      5134102000                       # number of overall miss cycles
system.l2.demand_accesses::.cpu.inst              526                       # number of demand (read+write) accesses
system.l2.demand_accesses::.cpu.data            63127                       # number of demand (read+write) accesses
system.l2.demand_accesses::total                63653                       # number of demand (read+write) accesses
system.l2.overall_accesses::.cpu.inst             526                       # number of overall (read+write) accesses
system.l2.overall_accesses::.cpu.data           63127                       # number of overall (read+write) accesses
system.l2.overall_accesses::total               63653                       # number of overall (read+write) accesses
system.l2.demand_miss_rate::.cpu.inst        0.973384                       # miss rate for demand accesses
system.l2.demand_miss_rate::.cpu.data        0.739747                       # miss rate for demand accesses
system.l2.demand_miss_rate::total            0.741678                       # miss rate for demand accesses
system.l2.overall_miss_rate::.cpu.inst       0.973384                       # miss rate for overall accesses
system.l2.overall_miss_rate::.cpu.data       0.739747                       # miss rate for overall accesses
system.l2.overall_miss_rate::total           0.741678                       # miss rate for overall accesses
system.l2.demand_avg_miss_latency::.cpu.inst 97472.656250                       # average overall miss latency
system.l2.demand_avg_miss_latency::.cpu.data 108873.956058                       # average overall miss latency
system.l2.demand_avg_miss_latency::total 108750.307138                       # average overall miss latency
system.l2.overall_avg_miss_latency::.cpu.inst 97472.656250                       # average overall miss latency
system.l2.overall_avg_miss_latency::.cpu.data 108873.956058                       # average overall miss latency
system.l2.overall_avg_miss_latency::total 108750.307138                       # average overall miss latency
system.l2.blocked_cycles::no_mshrs                  0                       # number of cycles access was blocked
system.l2.blocked_cycles::no_targets                0                       # number of cycles access was blocked
system.l2.blocked::no_mshrs                         0                       # number of cycles access was blocked
system.l2.blocked::no_targets                       0                       # number of cycles access was blocked
system.l2.avg_blocked_cycles::no_mshrs            nan                       # average number of cycles each access was blocked
system.l2.avg_blocked_cycles::no_targets          nan                       # average number of cycles each access was blocked
system.l2.writebacks::.writebacks               37683                       # number of writebacks
system.l2.writebacks::total                     37683                       # number of writebacks
system.l2.demand_mshr_hits::.cpu.inst               1                       # number of demand (read+write) MSHR hits
system.l2.demand_mshr_hits::.cpu.data               5                       # number of demand (read+write) MSHR hits
system.l2.demand_mshr_hits::total                   6                       # number of demand (read+write) MSHR hits
system.l2.overall_mshr_hits::.cpu.inst              1                       # number of overall MSHR hits
system.l2.overall_mshr_hits::.cpu.data              5                       # number of overall MSHR hits
system.l2.overall_mshr_hits::total                  6                       # number of overall MSHR hits
system.l2.demand_mshr_misses::.cpu.inst           511                       # number of demand (read+write) MSHR misses
system.l2.demand_mshr_misses::.cpu.data         46693                       # number of demand (read+write) MSHR misses
system.l2.demand_mshr_misses::total             47204                       # number of demand (read+write) MSHR misses
system.l2.overall_mshr_misses::.cpu.inst          511                       # number of overall MSHR misses
system.l2.overall_mshr_misses::.cpu.data        46693                       # number of overall MSHR misses
system.l2.overall_mshr_misses::total            47204                       # number of overall MSHR misses
system.l2.demand_mshr_miss_latency::.cpu.inst     39606000                       # number of demand (read+write) MSHR miss cycles
system.l2.demand_mshr_miss_latency::.cpu.data   4149928000                       # number of demand (read+write) MSHR miss cycles
system.l2.demand_mshr_miss_latency::total   4189534000                       # number of demand (read+write) MSHR miss cycles
system.l2.overall_mshr_miss_latency::.cpu.inst     39606000                       # number of overall MSHR miss cycles
system.l2.overall_mshr_miss_latency::.cpu.data   4149928000                       # number of overall MSHR miss cycles
system.l2.overall_mshr_miss_latency::total   4189534000                       # number of overall MSHR miss cycles
system.l2.demand_mshr_miss_rate::.cpu.inst     0.971483                       # mshr miss rate for demand accesses
system.l2.demand_mshr_miss_rate::.cpu.data     0.739668                       # mshr miss rate for demand accesses
system.l2.demand_mshr_miss_rate::total       0.741583                       # mshr miss rate for demand accesses
system.l2.overall_mshr_miss_rate::.cpu.inst     0.971483                       # mshr miss rate for overall accesses
system.l2.overall_mshr_miss_rate::.cpu.data     0.739668                       # mshr miss rate for overall accesses
system.l2.overall_mshr_miss_rate::total      0.741583                       # mshr miss rate for overall accesses
system.l2.demand_avg_mshr_miss_latency::.cpu.inst 77506.849315                       # average overall mshr miss latency
system.l2.demand_avg_mshr_miss_latency::.cpu.data 88876.876620                       # average overall mshr miss latency
system.l2.demand_avg_mshr_miss_latency::total 88753.792052                       # average overall mshr miss latency
system.l2.overall_avg_mshr_miss_latency::.cpu.inst 77506.849315                       # average overall mshr miss latency
system.l2.overall_avg_mshr_miss_latency::.cpu.data 88876.876620                       # average overall mshr miss latency
system.l2.overall_avg_mshr_miss_latency::total 88753.792052                       # average overall mshr miss latency
system.l2.replacements                          42167                       # number of replacements
system.l2.WritebackDirty_hits::.writebacks        53239                       # number of WritebackDirty hits
system.l2.WritebackDirty_hits::total            53239                       # number of WritebackDirty hits
system.l2.WritebackDirty_accesses::.writebacks        53239                       # number of WritebackDirty accesses(hits+misses)
system.l2.WritebackDirty_accesses::total        53239                       # number of WritebackDirty accesses(hits+misses)
system.l2.WritebackClean_hits::.writebacks           24                       # number of WritebackClean hits
system.l2.WritebackClean_hits::total               24                       # number of WritebackClean hits
system.l2.WritebackClean_accesses::.writebacks           24                       # number of WritebackClean accesses(hits+misses)
system.l2.WritebackClean_accesses::total           24                       # number of WritebackClean accesses(hits+misses)
system.l2.CleanEvict_mshr_misses::.writebacks          587                       # number of CleanEvict MSHR misses
system.l2.CleanEvict_mshr_misses::total           587                       # number of CleanEvict MSHR misses
system.l2.CleanEvict_mshr_miss_rate::.writebacks          inf                       # mshr miss rate for CleanEvict accesses
system.l2.CleanEvict_mshr_miss_rate::total          inf                       # mshr miss rate for CleanEvict accesses
system.l2.ReadExReq_hits::.cpu.data              2291                       # number of ReadExReq hits
system.l2.ReadExReq_hits::total                  2291                       # number of ReadExReq hits
system.l2.ReadExReq_misses::.cpu.data           38812                       # number of ReadExReq misses
system.l2.ReadExReq_misses::total               38812                       # number of ReadExReq misses
system.l2.ReadExReq_miss_latency::.cpu.data   4207901000                       # number of ReadExReq miss cycles
system.l2.ReadExReq_miss_latency::total    4207901000                       # number of ReadExReq miss cycles
system.l2.ReadExReq_accesses::.cpu.data         41103                       # number of ReadExReq accesses(hits+misses)
system.l2.ReadExReq_accesses::total             41103                       # number of ReadExReq accesses(hits+misses)
system.l2.ReadExReq_miss_rate::.cpu.data     0.944262                       # miss rate for ReadExReq accesses
system.l2.ReadExReq_miss_rate::total         0.944262                       # miss rate for ReadExReq accesses
system.l2.ReadExReq_avg_miss_latency::.cpu.data 108417.525508                       # average ReadExReq miss latency
system.l2.ReadExReq_avg_miss_latency::total 108417.525508                       # average ReadExReq miss latency
system.l2.ReadExReq_mshr_misses::.cpu.data        38812                       # number of ReadExReq MSHR misses
system.l2.ReadExReq_mshr_misses::total          38812                       # number of ReadExReq MSHR misses
system.l2.ReadExReq_mshr_miss_latency::.cpu.data   3431661000                       # number of ReadExReq MSHR miss cycles
system.l2.ReadExReq_mshr_miss_latency::total   3431661000                       # number of ReadExReq MSHR miss cycles
system.l2.ReadExReq_mshr_miss_rate::.cpu.data     0.944262                       # mshr miss rate for ReadExReq accesses
system.l2.ReadExReq_mshr_miss_rate::total     0.944262                       # mshr miss rate for ReadExReq accesses
system.l2.ReadExReq_avg_mshr_miss_latency::.cpu.data 88417.525508                       # average ReadExReq mshr miss latency
system.l2.ReadExReq_avg_mshr_miss_latency::total 88417.525508                       # average ReadExReq mshr miss latency
system.l2.ReadCleanReq_hits::.cpu.inst             14                       # number of ReadCleanReq hits
system.l2.ReadCleanReq_hits::total                 14                       # number of ReadCleanReq hits
system.l2.ReadCleanReq_misses::.cpu.inst          512                       # number of ReadCleanReq misses
system.l2.ReadCleanReq_misses::total              512                       # number of ReadCleanReq misses
system.l2.ReadCleanReq_miss_latency::.cpu.inst     49906000                       # number of ReadCleanReq miss cycles
system.l2.ReadCleanReq_miss_latency::total     49906000                       # number of ReadCleanReq miss cycles
system.l2.ReadCleanReq_accesses::.cpu.inst          526                       # number of ReadCleanReq accesses(hits+misses)
system.l2.ReadCleanReq_accesses::total            526                       # number of ReadCleanReq accesses(hits+misses)
system.l2.ReadCleanReq_miss_rate::.cpu.inst     0.973384                       # miss rate for ReadCleanReq accesses
system.l2.ReadCleanReq_miss_rate::total      0.973384                       # miss rate for ReadCleanReq accesses
system.l2.ReadCleanReq_avg_miss_latency::.cpu.inst 97472.656250                       # average ReadCleanReq miss latency
system.l2.ReadCleanReq_avg_miss_latency::total 97472.656250                       # average ReadCleanReq miss latency
system.l2.ReadCleanReq_mshr_hits::.cpu.inst            1                       # number of ReadCleanReq MSHR hits
system.l2.ReadCleanReq_mshr_hits::total             1                       # number of ReadCleanReq MSHR hits
system.l2.ReadCleanReq_mshr_misses::.cpu.inst          511                       # number of ReadCleanReq MSHR misses
system.l2.ReadCleanReq_mshr_misses::total          511                       # number of ReadCleanReq MSHR misses
system.l2.ReadCleanReq_mshr_miss_latency::.cpu.inst     39606000                       # number of ReadCleanReq MSHR miss cycles
system.l2.ReadCleanReq_mshr_miss_latency::total     39606000                       # number of ReadCleanReq MSHR miss cycles
system.l2.ReadCleanReq_mshr_miss_rate::.cpu.inst     0.971483                       # mshr miss rate for ReadCleanReq accesses
system.l2.ReadCleanReq_mshr_miss_rate::total     0.971483                       # mshr miss rate for ReadCleanReq accesses
system.l2.ReadCleanReq_avg_mshr_miss_latency::.cpu.inst 77506.849315                       # average ReadCleanReq mshr miss latency
system.l2.ReadCleanReq_avg_mshr_miss_latency::total 77506.849315                       # average ReadCleanReq mshr miss latency
system.l2.ReadSharedReq_hits::.cpu.data         14138                       # number of ReadSharedReq hits
system.l2.ReadSharedReq_hits::total             14138                       # number of ReadSharedReq hits
system.l2.ReadSharedReq_misses::.cpu.data         7886                       # number of ReadSharedReq misses
system.l2.ReadSharedReq_misses::total            7886                       # number of ReadSharedReq misses
system.l2.ReadSharedReq_miss_latency::.cpu.data    876295000                       # number of ReadSharedReq miss cycles
system.l2.ReadSharedReq_miss_latency::total    876295000                       # number of ReadSharedReq miss cycles
system.l2.ReadSharedReq_accesses::.cpu.data        22024                       # number of ReadSharedReq accesses(hits+misses)
system.l2.ReadSharedReq_accesses::total         22024                       # number of ReadSharedReq accesses(hits+misses)
system.l2.ReadSharedReq_miss_rate::.cpu.data     0.358064                       # miss rate for ReadSharedReq accesses
system.l2.ReadSharedReq_miss_rate::total     0.358064                       # miss rate for ReadSharedReq accesses
system.l2.ReadSharedReq_avg_miss_latency::.cpu.data 111120.339843                       # average ReadSharedReq miss latency
system.l2.ReadSharedReq_avg_miss_latency::total 111120.339843                       # average ReadSharedReq miss latency
system.l2.ReadSharedReq_mshr_hits::.cpu.data            5                       # number of ReadSharedReq MSHR hits
system.l2.ReadSharedReq_mshr_hits::total            5                       # number of ReadSharedReq MSHR hits
system.l2.ReadSharedReq_mshr_misses::.cpu.data         7881                       # number of ReadSharedReq MSHR misses
system.l2.ReadSharedReq_mshr_misses::total         7881                       # number of ReadSharedReq MSHR misses
system.l2.ReadSharedReq_mshr_miss_latency::.cpu.data    718267000                       # number of ReadSharedReq MSHR miss cycles
system.l2.ReadSharedReq_mshr_miss_latency::total    718267000                       # number of ReadSharedReq MSHR miss cycles
system.l2.ReadSharedReq_mshr_miss_rate::.cpu.data     0.357837                       # mshr miss rate for ReadSharedReq accesses
system.l2.ReadSharedReq_mshr_miss_rate::total     0.357837                       # mshr miss rate for ReadSharedReq accesses
system.l2.ReadSharedReq_avg_mshr_miss_latency::.cpu.data 91139.068646                       # average ReadSharedReq mshr miss latency
system.l2.ReadSharedReq_avg_mshr_miss_latency::total 91139.068646                       # average ReadSharedReq mshr miss latency
system.l2.tags.pwrStateResidencyTicks::UNDEFINED 114524759000                       # Cumulative time (in ticks) in various power states
system.l2.tags.tagsinuse                  7977.636990                       # Cycle average of tags in use
system.l2.tags.total_refs                      123008                       # Total number of references to valid blocks.
system.l2.tags.sampled_refs                     50359                       # Sample count of references to valid blocks.
system.l2.tags.avg_refs                      2.442622                       # Average number of references to valid blocks.
system.l2.tags.warmup_cycle                     87000                       # Cycle when the warmup percentage was hit.
system.l2.tags.occ_blocks::.writebacks     246.793250                       # Average occupied blocks per requestor
system.l2.tags.occ_blocks::.cpu.inst        18.696791                       # Average occupied blocks per requestor
system.l2.tags.occ_blocks::.cpu.data      7712.146949                       # Average occupied blocks per requestor
system.l2.tags.occ_percent::.writebacks      0.030126                       # Average percentage of cache occupancy
system.l2.tags.occ_percent::.cpu.inst        0.002282                       # Average percentage of cache occupancy
system.l2.tags.occ_percent::.cpu.data        0.941424                       # Average percentage of cache occupancy
system.l2.tags.occ_percent::total            0.973833                       # Average percentage of cache occupancy
system.l2.tags.occ_task_id_blocks::1024          8192                       # Occupied blocks per task id
system.l2.tags.age_task_id_blocks_1024::0            2                       # Occupied blocks per task id
system.l2.tags.age_task_id_blocks_1024::1           17                       # Occupied blocks per task id
system.l2.tags.age_task_id_blocks_1024::2          251                       # Occupied blocks per task id
system.l2.tags.age_task_id_blocks_1024::3         2582                       # Occupied blocks per task id
system.l2.tags.age_task_id_blocks_1024::4         5340                       # Occupied blocks per task id
system.l2.tags.occ_task_id_percent::1024            1                       # Percentage of cache occupancy per task id
system.l2.tags.tag_accesses                    297561                       # Number of tag accesses
system.l2.tags.data_accesses                   297561                       # Number of data accesses
system.cpu_voltage_domain.voltage                   1                       # Voltage in Volts
system.mem_ctrls.pwrStateResidencyTicks::UNDEFINED 114524759000                       # Cumulative time (in ticks) in various power states
system.mem_ctrls.bytes_read::.cpu.inst          32704                       # Number of bytes read from this memory
system.mem_ctrls.bytes_read::.cpu.data        2988352                       # Number of bytes read from this memory
system.mem_ctrls.bytes_read::total            3021056                       # Number of bytes read from this memory
system.mem_ctrls.bytes_inst_read::.cpu.inst        32704                       # Number of instructions bytes read from this memory
system.mem_ctrls.bytes_inst_read::total         32704                       # Number of instructions bytes read from this memory
system.mem_ctrls.bytes_written::.writebacks      2411712                       # Number of bytes written to this memory
system.mem_ctrls.bytes_written::total         2411712                       # Number of bytes written to this memory
system.mem_ctrls.num_reads::.cpu.inst             511                       # Number of read requests responded to by this memory
system.mem_ctrls.num_reads::.cpu.data           46693                       # Number of read requests responded to by this memory
system.mem_ctrls.num_reads::total               47204                       # Number of read requests responded to by this memory
system.mem_ctrls.num_writes::.writebacks        37683                       # Number of write requests responded to by this memory
system.mem_ctrls.num_writes::total              37683                       # Number of write requests responded to by this memory
system.mem_ctrls.bw_read::.cpu.inst            285563                       # Total read bandwidth from this memory (bytes/s)
system.mem_ctrls.bw_read::.cpu.data          26093502                       # Total read bandwidth from this memory (bytes/s)
system.mem_ctrls.bw_read::total              26379064                       # Total read bandwidth from this memory (bytes/s)
system.mem_ctrls.bw_inst_read::.cpu.inst       285563                       # Instruction read bandwidth from this memory (bytes/s)
system.mem_ctrls.bw_inst_read::total           285563                       # Instruction read bandwidth from this memory (bytes/s)
system.mem_ctrls.bw_write::.writebacks       21058433                       # Write bandwidth from this memory (bytes/s)
system.mem_ctrls.bw_write::total             21058433                       # Write bandwidth from this memory (bytes/s)
system.mem_ctrls.bw_total::.writebacks       21058433                       # Total bandwidth to/from this memory (bytes/s)
system.mem_ctrls.bw_total::.cpu.inst           285563                       # Total bandwidth to/from this memory (bytes/s)
system.mem_ctrls.bw_total::.cpu.data         26093502                       # Total bandwidth to/from this memory (bytes/s)
system.mem_ctrls.bw_total::total             47437498                       # Total bandwidth to/from this memory (bytes/s)
system.mem_ctrls.avgPriority_.writebacks::samples     37683.00                       # Average QoS priority value for accepted requests
system.mem_ctrls.avgPriority_.cpu.inst::samples       511.00                       # Average QoS priority value for accepted requests
system.mem_ctrls.avgPriority_.cpu.data::samples     46670.00                       # Average QoS priority value for accepted requests
system.mem_ctrls.priorityMinLatency      0.000000018750                       # per QoS priority minimum request to response latency (s)
system.mem_ctrls.priorityMaxLatency      0.002741294500                       # per QoS priority maximum request to response latency (s)
system.mem_ctrls.numReadWriteTurnArounds         2103                       # Number of turnarounds from READ to WRITE
system.mem_ctrls.numWriteReadTurnArounds         2103                       # Number of turnarounds from WRITE to READ
system.mem_ctrls.numStayReadState              160822                       # Number of times bus staying in READ state
system.mem_ctrls.numStayWriteState              35592                       # Number of times bus staying in WRITE state
system.mem_ctrls.readReqs                       47204                       # Number of read requests accepted
system.mem_ctrls.writeReqs                      37683                       # Number of write requests accepted
system.mem_ctrls.readBursts                     47204                       # Number of DRAM read bursts, including those serviced by the write queue
system.mem_ctrls.writeBursts                    37683                       # Number of DRAM write bursts, including those merged in the write queue
system.mem_ctrls.servicedByWrQ                     23                       # Number of DRAM read bursts serviced by the write queue
system.mem_ctrls.mergedWrBursts                     0                       # Number of DRAM write bursts merged with an existing one
system.mem_ctrls.neitherReadNorWriteReqs            0                       # Number of requests that are neither read nor write
system.mem_ctrls.perBankRdBursts::0              2894                       # Per bank write bursts
system.mem_ctrls.perBankRdBursts::1              2762                       # Per bank write bursts
system.mem_ctrls.perBankRdBursts::2              2754                       # Per bank write bursts
system.mem_ctrls.perBankRdBursts::3              3299                       # Per bank write bursts
system.mem_ctrls.perBankRdBursts::4              3542                       # Per bank write bursts
system.mem_ctrls.perBankRdBursts::5              2864                       # Per bank write bursts
system.mem_ctrls.perBankRdBursts::6              2872                       # Per bank write bursts
system.mem_ctrls.perBankRdBursts::7              2893                       # Per bank write bursts
system.mem_ctrls.perBankRdBursts::8              2872                       # Per bank write bursts
system.mem_ctrls.perBankRdBursts::9              2908                       # Per bank write bursts
system.mem_ctrls.perBankRdBursts::10             2901                       # Per bank write bursts
system.mem_ctrls.perBankRdBursts::11             2939                       # Per bank write bursts
system.mem_ctrls.perBankRdBursts::12             2948                       # Per bank write bursts
system.mem_ctrls.perBankRdBursts::13             2884                       # Per bank write bursts
system.mem_ctrls.perBankRdBursts::14             2965                       # Per bank write bursts
system.mem_ctrls.perBankRdBursts::15             2884                       # Per bank write bursts
system.mem_ctrls.perBankWrBursts::0              2303                       # Per bank write bursts
system.mem_ctrls.perBankWrBursts::1              2217                       # Per bank write bursts
system.mem_ctrls.perBankWrBursts::2              2218                       # Per bank write bursts
system.mem_ctrls.perBankWrBursts::3              2433                       # Per bank write bursts
system.mem_ctrls.perBankWrBursts::4              2617                       # Per bank write bursts
system.mem_ctrls.perBankWrBursts::5              2345                       # Per bank write bursts
system.mem_ctrls.perBankWrBursts::6              2360                       # Per bank write bursts
system.mem_ctrls.perBankWrBursts::7              2355                       # Per bank write bursts
system.mem_ctrls.perBankWrBursts::8              2337                       # Per bank write bursts
system.mem_ctrls.perBankWrBursts::9              2340                       # Per bank write bursts
system.mem_ctrls.perBankWrBursts::10             2350                       # Per bank write bursts
system.mem_ctrls.perBankWrBursts::11             2366                       # Per bank write bursts
system.mem_ctrls.perBankWrBursts::12             2368                       # Per bank write bursts
system.mem_ctrls.perBankWrBursts::13             2339                       # Per bank write bursts
system.mem_ctrls.perBankWrBursts::14             2369                       # Per bank write bursts
system.mem_ctrls.perBankWrBursts::15             2339                       # Per bank write bursts
system.mem_ctrls.avgRdQLen                       1.06                       # Average read queue length when enqueuing
system.mem_ctrls.avgWrQLen                      24.07                       # Average write queue length when enqueuing
system.mem_ctrls.totQLat                    878483250                       # Total ticks spent queuing
system.mem_ctrls.totBusLat                  235905000                       # Total ticks spent in databus transfers
system.mem_ctrls.totMemAccLat              1763127000                       # Total ticks spent from burst creation until serviced by the DRAM
system.mem_ctrls.avgQLat                     18619.43                       # Average queueing delay per DRAM burst
system.mem_ctrls.avgBusLat                    5000.00                       # Average bus latency per DRAM burst
system.mem_ctrls.avgMemAccLat                37369.43                       # Average memory access latency per DRAM burst
system.mem_ctrls.numRdRetry                         0                       # Number of times read queue was full causing retry
system.mem_ctrls.numWrRetry                         0                       # Number of times write queue was full causing retry
system.mem_ctrls.readRowHits                    18943                       # Number of row buffer hits during reads
system.mem_ctrls.writeRowHits                   27788                       # Number of row buffer hits during writes
system.mem_ctrls.readRowHitRate                 40.15                       # Row buffer hit rate for reads
system.mem_ctrls.writeRowHitRate                73.74                       # Row buffer hit rate for writes
system.mem_ctrls.readPktSize::0                     0                       # Read request sizes (log2)
system.mem_ctrls.readPktSize::1                     0                       # Read request sizes (log2)
system.mem_ctrls.readPktSize::2                     0                       # Read request sizes (log2)
system.mem_ctrls.readPktSize::3                     0                       # Read request sizes (log2)
system.mem_ctrls.readPktSize::4                     0                       # Read request sizes (log2)
system.mem_ctrls.readPktSize::5                     0                       # Read request sizes (log2)
system.mem_ctrls.readPktSize::6                 47204                       # Read request sizes (log2)
system.mem_ctrls.writePktSize::0                    0                       # Write request sizes (log2)
system.mem_ctrls.writePktSize::1                    0                       # Write request sizes (log2)
system.mem_ctrls.writePktSize::2                    0                       # Write request sizes (log2)
system.mem_ctrls.writePktSize::3                    0                       # Write request sizes (log2)
system.mem_ctrls.writePktSize::4                    0                       # Write request sizes (log2)
system.mem_ctrls.writePktSize::5                    0                       # Write request sizes (log2)
system.mem_ctrls.writePktSize::6                37683                       # Write request sizes (log2)
system.mem_ctrls.rdQLenPdf::0                   45230                       # What read queue length does an incoming req see
system.mem_ctrls.rdQLenPdf::1                    1945                       # What read queue length does an incoming req see
system.mem_ctrls.rdQLenPdf::2                       6                       # What read queue length does an incoming req see
system.mem_ctrls.rdQLenPdf::3                       0                       # What read queue length does an incoming req see
system.mem_ctrls.rdQLenPdf::4                       0                       # What read queue length does an incoming req see
system.mem_ctrls.rdQLenPdf::5                       0                       # What read queue length does an incoming req see
system.mem_ctrls.rdQLenPdf::6                       0                       # What read queue length does an incoming req see
system.mem_ctrls.rdQLenPdf::7                       0                       # What read queue length does an incoming req see
system.mem_ctrls.rdQLenPdf::8                       0                       # What read queue length does an incoming req see
system.mem_ctrls.rdQLenPdf::9                       0                       # What read queue length does an incoming req see
system.mem_ctrls.rdQLenPdf::10                      0                       # What read queue length does an incoming req see
system.mem_ctrls.rdQLenPdf::11                      0                       # What read queue length does an incoming req see
system.mem_ctrls.rdQLenPdf::12                      0                       # What read queue length does an incoming req see
system.mem_ctrls.rdQLenPdf::13                      0                       # What read queue length does an incoming req see
system.mem_ctrls.rdQLenPdf::14                      0                       # What read queue length does an incoming req see
system.mem_ctrls.rdQLenPdf::15                      0                       # What read queue length does an incoming req see
system.mem_ctrls.rdQLenPdf::16                      0                       # What read queue length does an incoming req see
system.mem_ctrls.rdQLenPdf::17                      0                       # What read queue length does an incoming req see
system.mem_ctrls.rdQLenPdf::18                      0                       # What read queue length does an incoming req see
system.mem_ctrls.rdQLenPdf::19                      0                       # What read queue length does an incoming req see
system.mem_ctrls.rdQLenPdf::20                      0                       # What read queue length does an incoming req see
system.mem_ctrls.rdQLenPdf::21                      0                       # What read queue length does an incoming req see
system.mem_ctrls.rdQLenPdf::22                      0                       # What read queue length does an incoming req see
system.mem_ctrls.rdQLenPdf::23                      0                       # What read queue length does an incoming req see
system.mem_ctrls.rdQLenPdf::24                      0                       # What read queue length does an incoming req see
system.mem_ctrls.rdQLenPdf::25                      0                       # What read queue length does an incoming req see
system.mem_ctrls.rdQLenPdf::26                      0                       # What read queue length does an incoming req see
system.mem_ctrls.rdQLenPdf::27                      0                       # What read queue length does an incoming req see
system.mem_ctrls.rdQLenPdf::28                      0                       # What read queue length does an incoming req see
system.mem_ctrls.rdQLenPdf::29                      0                       # What read queue length does an incoming req see
system.mem_ctrls.rdQLenPdf::30                      0                       # What read queue length does an incoming req see
system.mem_ctrls.rdQLenPdf::31                      0                       # What read queue length does an incoming req see
system.mem_ctrls.wrQLenPdf::0                       1                       # What write queue length does an incoming req see
system.mem_ctrls.wrQLenPdf::1                       1                       # What write queue length does an incoming req see
system.mem_ctrls.wrQLenPdf::2                       1                       # What write queue length does an incoming req see
system.mem_ctrls.wrQLenPdf::3                       1                       # What write queue length does an incoming req see
system.mem_ctrls.wrQLenPdf::4                       1                       # What write queue length does an incoming req see
system.mem_ctrls.wrQLenPdf::5                       1                       # What write queue length does an incoming req see
system.mem_ctrls.wrQLenPdf::6                       1                       # What write queue length does an incoming req see
system.mem_ctrls.wrQLenPdf::7                       1                       # What write queue length does an incoming req see
system.mem_ctrls.wrQLenPdf::8                       1                       # What write queue length does an incoming req see
system.mem_ctrls.wrQLenPdf::9                       1                       # What write queue length does an incoming req see
system.mem_ctrls.wrQLenPdf::10                      1                       # What write queue length does an incoming req see
system.mem_ctrls.wrQLenPdf::11                      1                       # What write queue length does an incoming req see
system.mem_ctrls.wrQLenPdf::12                      1                       # What write queue length does an incoming req see
system.mem_ctrls.wrQLenPdf::13                      1                       # What write queue length does an incoming req see
system.mem_ctrls.wrQLenPdf::14                      1                       # What write queue length does an incoming req see
system.mem_ctrls.wrQLenPdf::15                   1917                       # What write queue length does an incoming req see
system.mem_ctrls.wrQLenPdf::16                   1924                       # What write queue length does an incoming req see
system.mem_ctrls.wrQLenPdf::17                   2104                       # What write queue length does an incoming req see
system.mem_ctrls.wrQLenPdf::18                   2106                       # What write queue length does an incoming req see
system.mem_ctrls.wrQLenPdf::19                   2119                       # What write queue length does an incoming req see
system.mem_ctrls.wrQLenPdf::20                   2117                       # What write queue length does an incoming req see
system.mem_ctrls.wrQLenPdf::21                   2114                       # What write queue length does an incoming req see
system.mem_ctrls.wrQLenPdf::22                   2119                       # What write queue length does an incoming req see
system.mem_ctrls.wrQLenPdf::23                   2121                       # What write queue length does an incoming req see
system.mem_ctrls.wrQLenPdf::24                   2112                       # What write queue length does an incoming req see
system.mem_ctrls.wrQLenPdf::25                   2116                       # What write queue length does an incoming req see
system.mem_ctrls.wrQLenPdf::26                   2108                       # What write queue length does an incoming req see
system.mem_ctrls.wrQLenPdf::27                   2127                       # What write queue length does an incoming req see
system.mem_ctrls.wrQLenPdf::28                   2140                       # What write queue length does an incoming req see
system.mem_ctrls.wrQLenPdf::29                   2108                       # What write queue length does an incoming req see
system.mem_ctrls.wrQLenPdf::30                   2109                       # What write queue length does an incoming req see
system.mem_ctrls.wrQLenPdf::31                   2104                       # What write queue length does an incoming req see
system.mem_ctrls.wrQLenPdf::32                   2103                       # What write queue length does an incoming req see
system.mem_ctrls.wrQLenPdf::33                      0                       # What write queue length does an incoming req see
system.mem_ctrls.wrQLenPdf::34                      0                       # What write queue length does an incoming req see
system.mem_ctrls.wrQLenPdf::35                      0                       # What write queue length does an incoming req see
system.mem_ctrls.wrQLenPdf::36                      0                       # What write queue length does an incoming req see
system.mem_ctrls.wrQLenPdf::37                      0                       # What write queue length does an incoming req see
system.mem_ctrls.wrQLenPdf::38                      0                       # What write queue length does an incoming req see
system.mem_ctrls.wrQLenPdf::39                      0                       # What write queue length does an incoming req see
system.mem_ctrls.wrQLenPdf::40                      0                       # What write queue length does an incoming req see
system.mem_ctrls.wrQLenPdf::41                      0                       # What write queue length does an incoming req see
system.mem_ctrls.wrQLenPdf::42                      0                       # What write queue length does an incoming req see
system.mem_ctrls.wrQLenPdf::43                      0                       # What write queue length does an incoming req see
system.mem_ctrls.wrQLenPdf::44                      0                       # What write queue length does an incoming req see
system.mem_ctrls.wrQLenPdf::45                      0                       # What write queue length does an incoming req see
system.mem_ctrls.wrQLenPdf::46                      0                       # What write queue length does an incoming req see
system.mem_ctrls.wrQLenPdf::47                      0                       # What write queue length does an incoming req see
system.mem_ctrls.wrQLenPdf::48                      0                       # What write queue length does an incoming req see
system.mem_ctrls.wrQLenPdf::49                      0                       # What write queue length does an incoming req see
system.mem_ctrls.wrQLenPdf::50                      0                       # What write queue length does an incoming req see
system.mem_ctrls.wrQLenPdf::51                      0                       # What write queue length does an incoming req see
system.mem_ctrls.wrQLenPdf::52                      0                       # What write queue length does an incoming req see
system.mem_ctrls.wrQLenPdf::53                      0                       # What write queue length does an incoming req see
system.mem_ctrls.wrQLenPdf::54                      0                       # What write queue length does an incoming req see
system.mem_ctrls.wrQLenPdf::55                      0                       # What write queue length does an incoming req see
system.mem_ctrls.wrQLenPdf::56                      0                       # What write queue length does an incoming req see
system.mem_ctrls.wrQLenPdf::57                      0                       # What write queue length does an incoming req see
system.mem_ctrls.wrQLenPdf::58                      0                       # What write queue length does an incoming req see
system.mem_ctrls.wrQLenPdf::59                      0                       # What write queue length does an incoming req see
system.mem_ctrls.wrQLenPdf::60                      0                       # What write queue length does an incoming req see
system.mem_ctrls.wrQLenPdf::61                      0                       # What write queue length does an incoming req see
system.mem_ctrls.wrQLenPdf::62                      0                       # What write queue length does an incoming req see
system.mem_ctrls.wrQLenPdf::63                      0                       # What write queue length does an incoming req see
system.mem_ctrls.bytesPerActivate::samples        38105                       # Bytes accessed per row activation
system.mem_ctrls.bytesPerActivate::mean    142.487967                       # Bytes accessed per row activation
system.mem_ctrls.bytesPerActivate::gmean   103.888144                       # Bytes accessed per row activation
system.mem_ctrls.bytesPerActivate::stdev   168.211312                       # Bytes accessed per row activation
system.mem_ctrls.bytesPerActivate::0-127        21467     56.34%     56.34% # Bytes accessed per row activation
system.mem_ctrls.bytesPerActivate::128-255        11928     31.30%     87.64% # Bytes accessed per row activation
system.mem_ctrls.bytesPerActivate::256-383         2219      5.82%     93.46% # Bytes accessed per row activation
system.mem_ctrls.bytesPerActivate::384-511          728      1.91%     95.37% # Bytes accessed per row activation
system.mem_ctrls.bytesPerActivate::512-639          343      0.90%     96.27% # Bytes accessed per row activation
system.mem_ctrls.bytesPerActivate::640-767          300      0.79%     97.06% # Bytes accessed per row activation
system.mem_ctrls.bytesPerActivate::768-895          314      0.82%     97.88% # Bytes accessed per row activation
system.mem_ctrls.bytesPerActivate::896-1023          363      0.95%     98.84% # Bytes accessed per row activation
system.mem_ctrls.bytesPerActivate::1024-1151          443      1.16%    100.00% # Bytes accessed per row activation
system.mem_ctrls.bytesPerActivate::total        38105                       # Bytes accessed per row activation
system.mem_ctrls.rdPerTurnAround::samples         2103                       # Reads before turning the bus around for writes
system.mem_ctrls.rdPerTurnAround::mean      22.429387                       # Reads before turning the bus around for writes
system.mem_ctrls.rdPerTurnAround::gmean     19.281043                       # Reads before turning the bus around for writes
system.mem_ctrls.rdPerTurnAround::stdev     84.285759                       # Reads before turning the bus around for writes
system.mem_ctrls.rdPerTurnAround::0-127          2095     99.62%     99.62% # Reads before turning the bus around for writes
system.mem_ctrls.rdPerTurnAround::128-255            3      0.14%     99.76% # Reads before turning the bus around for writes
[...]
system.cpu.icache.tags.occ_percent::total     0.244161                       # Average percentage of cache occupancy
system.cpu.icache.tags.occ_task_id_blocks::1024          501                       # Occupied blocks per task id
system.cpu.icache.tags.age_task_id_blocks_1024::4          501                       # Occupied blocks per task id
system.cpu.icache.tags.occ_task_id_percent::1024     0.244629                       # Percentage of cache occupancy per task id
system.cpu.icache.tags.tag_accesses          28673718                       # Number of tag accesses
system.cpu.icache.tags.data_accesses         28673718                       # Number of data accesses
system.cpu.dtb.walker.pwrStateResidencyTicks::UNDEFINED 114524759000                       # Cumulative time (in ticks) in various power states
system.cpu.dtb.stage2_mmu.stage2_tlb.walker.pwrStateResidencyTicks::UNDEFINED 114524759000                       # Cumulative time (in ticks) in various power states
system.cpu.dcache.pwrStateResidencyTicks::UNDEFINED 114524759000                       # Cumulative time (in ticks) in various power states
system.cpu.dcache.demand_hits::.cpu.data     35651686                       # number of demand (read+write) hits
system.cpu.dcache.demand_hits::total         35651686                       # number of demand (read+write) hits
system.cpu.dcache.overall_hits::.cpu.data     35655001                       # number of overall hits
system.cpu.dcache.overall_hits::total        35655001                       # number of overall hits
system.cpu.dcache.demand_misses::.cpu.data        85702                       # number of demand (read+write) misses
system.cpu.dcache.demand_misses::total          85702                       # number of demand (read+write) misses
system.cpu.dcache.overall_misses::.cpu.data        85748                       # number of overall misses
system.cpu.dcache.overall_misses::total         85748                       # number of overall misses
system.cpu.dcache.demand_miss_latency::.cpu.data   7235190000                       # number of demand (read+write) miss cycles
system.cpu.dcache.demand_miss_latency::total   7235190000                       # number of demand (read+write) miss cycles
system.cpu.dcache.overall_miss_latency::.cpu.data   7235190000                       # number of overall miss cycles
system.cpu.dcache.overall_miss_latency::total   7235190000                       # number of overall miss cycles
system.cpu.dcache.demand_accesses::.cpu.data     35737388                       # number of demand (read+write) accesses
system.cpu.dcache.demand_accesses::total     35737388                       # number of demand (read+write) accesses
system.cpu.dcache.overall_accesses::.cpu.data     35740749                       # number of overall (read+write) accesses
system.cpu.dcache.overall_accesses::total     35740749                       # number of overall (read+write) accesses
system.cpu.dcache.demand_miss_rate::.cpu.data     0.002398                       # miss rate for demand accesses
system.cpu.dcache.demand_miss_rate::total     0.002398                       # miss rate for demand accesses
system.cpu.dcache.overall_miss_rate::.cpu.data     0.002399                       # miss rate for overall accesses
system.cpu.dcache.overall_miss_rate::total     0.002399                       # miss rate for overall accesses
system.cpu.dcache.demand_avg_miss_latency::.cpu.data 84422.650580                       # average overall miss latency
system.cpu.dcache.demand_avg_miss_latency::total 84422.650580                       # average overall miss latency
system.cpu.dcache.overall_avg_miss_latency::.cpu.data 84377.361571                       # average overall miss latency
system.cpu.dcache.overall_avg_miss_latency::total 84377.361571                       # average overall miss latency
system.cpu.dcache.blocked_cycles::no_mshrs            0                       # number of cycles access was blocked
system.cpu.dcache.blocked_cycles::no_targets            0                       # number of cycles access was blocked
system.cpu.dcache.blocked::no_mshrs                 0                       # number of cycles access was blocked
system.cpu.dcache.blocked::no_targets               0                       # number of cycles access was blocked
system.cpu.dcache.avg_blocked_cycles::no_mshrs          nan                       # average number of cycles each access was blocked
system.cpu.dcache.avg_blocked_cycles::no_targets          nan                       # average number of cycles each access was blocked
system.cpu.dcache.writebacks::.writebacks        53239                       # number of writebacks
system.cpu.dcache.writebacks::total             53239                       # number of writebacks
system.cpu.dcache.demand_mshr_hits::.cpu.data        22617                       # number of demand (read+write) MSHR hits
system.cpu.dcache.demand_mshr_hits::total        22617                       # number of demand (read+write) MSHR hits
system.cpu.dcache.overall_mshr_hits::.cpu.data        22617                       # number of overall MSHR hits
system.cpu.dcache.overall_mshr_hits::total        22617                       # number of overall MSHR hits
system.cpu.dcache.demand_mshr_misses::.cpu.data        63085                       # number of demand (read+write) MSHR misses
system.cpu.dcache.demand_mshr_misses::total        63085                       # number of demand (read+write) MSHR misses
system.cpu.dcache.overall_mshr_misses::.cpu.data        63126                       # number of overall MSHR misses
system.cpu.dcache.overall_mshr_misses::total        63126                       # number of overall MSHR misses
system.cpu.dcache.demand_mshr_miss_latency::.cpu.data   5641556000                       # number of demand (read+write) MSHR miss cycles
system.cpu.dcache.demand_mshr_miss_latency::total   5641556000                       # number of demand (read+write) MSHR miss cycles
system.cpu.dcache.overall_mshr_miss_latency::.cpu.data   5644457000                       # number of overall MSHR miss cycles
system.cpu.dcache.overall_mshr_miss_latency::total   5644457000                       # number of overall MSHR miss cycles
system.cpu.dcache.demand_mshr_miss_rate::.cpu.data     0.001765                       # mshr miss rate for demand accesses
system.cpu.dcache.demand_mshr_miss_rate::total     0.001765                       # mshr miss rate for demand accesses
system.cpu.dcache.overall_mshr_miss_rate::.cpu.data     0.001766                       # mshr miss rate for overall accesses
system.cpu.dcache.overall_mshr_miss_rate::total     0.001766                       # mshr miss rate for overall accesses
system.cpu.dcache.demand_avg_mshr_miss_latency::.cpu.data 89427.851312                       # average overall mshr miss latency
system.cpu.dcache.demand_avg_mshr_miss_latency::total 89427.851312                       # average overall mshr miss latency
system.cpu.dcache.overall_avg_mshr_miss_latency::.cpu.data 89415.724107                       # average overall mshr miss latency
system.cpu.dcache.overall_avg_mshr_miss_latency::total 89415.724107                       # average overall mshr miss latency
system.cpu.dcache.replacements                  61079                       # number of replacements
system.cpu.dcache.ReadReq_hits::.cpu.data     21456156                       # number of ReadReq hits
system.cpu.dcache.ReadReq_hits::total        21456156                       # number of ReadReq hits
system.cpu.dcache.ReadReq_misses::.cpu.data        26481                       # number of ReadReq misses
system.cpu.dcache.ReadReq_misses::total         26481                       # number of ReadReq misses
system.cpu.dcache.ReadReq_miss_latency::.cpu.data   1489669000                       # number of ReadReq miss cycles
system.cpu.dcache.ReadReq_miss_latency::total   1489669000                       # number of ReadReq miss cycles
system.cpu.dcache.ReadReq_accesses::.cpu.data     21482637                       # number of ReadReq accesses(hits+misses)
system.cpu.dcache.ReadReq_accesses::total     21482637                       # number of ReadReq accesses(hits+misses)
system.cpu.dcache.ReadReq_miss_rate::.cpu.data     0.001233                       # miss rate for ReadReq accesses
system.cpu.dcache.ReadReq_miss_rate::total     0.001233                       # miss rate for ReadReq accesses
system.cpu.dcache.ReadReq_avg_miss_latency::.cpu.data 56254.257770                       # average ReadReq miss latency
system.cpu.dcache.ReadReq_avg_miss_latency::total 56254.257770                       # average ReadReq miss latency
system.cpu.dcache.ReadReq_mshr_hits::.cpu.data         4499                       # number of ReadReq MSHR hits
system.cpu.dcache.ReadReq_mshr_hits::total         4499                       # number of ReadReq MSHR hits
system.cpu.dcache.ReadReq_mshr_misses::.cpu.data        21982                       # number of ReadReq MSHR misses
system.cpu.dcache.ReadReq_mshr_misses::total        21982                       # number of ReadReq MSHR misses
system.cpu.dcache.ReadReq_mshr_miss_latency::.cpu.data   1250678000                       # number of ReadReq MSHR miss cycles
system.cpu.dcache.ReadReq_mshr_miss_latency::total   1250678000                       # number of ReadReq MSHR miss cycles
system.cpu.dcache.ReadReq_mshr_miss_rate::.cpu.data     0.001023                       # mshr miss rate for ReadReq accesses
system.cpu.dcache.ReadReq_mshr_miss_rate::total     0.001023                       # mshr miss rate for ReadReq accesses
system.cpu.dcache.ReadReq_avg_mshr_miss_latency::.cpu.data 56895.550905                       # average ReadReq mshr miss latency
system.cpu.dcache.ReadReq_avg_mshr_miss_latency::total 56895.550905                       # average ReadReq mshr miss latency
system.cpu.dcache.WriteReq_hits::.cpu.data     14195530                       # number of WriteReq hits
system.cpu.dcache.WriteReq_hits::total       14195530                       # number of WriteReq hits
system.cpu.dcache.WriteReq_misses::.cpu.data        59221                       # number of WriteReq misses
system.cpu.dcache.WriteReq_misses::total        59221                       # number of WriteReq misses
system.cpu.dcache.WriteReq_miss_latency::.cpu.data   5745521000                       # number of WriteReq miss cycles
system.cpu.dcache.WriteReq_miss_latency::total   5745521000                       # number of WriteReq miss cycles
system.cpu.dcache.WriteReq_accesses::.cpu.data     14254751                       # number of WriteReq accesses(hits+misses)
system.cpu.dcache.WriteReq_accesses::total     14254751                       # number of WriteReq accesses(hits+misses)
system.cpu.dcache.WriteReq_miss_rate::.cpu.data     0.004154                       # miss rate for WriteReq accesses
system.cpu.dcache.WriteReq_miss_rate::total     0.004154                       # miss rate for WriteReq accesses
system.cpu.dcache.WriteReq_avg_miss_latency::.cpu.data 97018.304318                       # average WriteReq miss latency
system.cpu.dcache.WriteReq_avg_miss_latency::total 97018.304318                       # average WriteReq miss latency
system.cpu.dcache.WriteReq_mshr_hits::.cpu.data        18118                       # number of WriteReq MSHR hits
system.cpu.dcache.WriteReq_mshr_hits::total        18118                       # number of WriteReq MSHR hits
system.cpu.dcache.WriteReq_mshr_misses::.cpu.data        41103                       # number of WriteReq MSHR misses
system.cpu.dcache.WriteReq_mshr_misses::total        41103                       # number of WriteReq MSHR misses
system.cpu.dcache.WriteReq_mshr_miss_latency::.cpu.data   4390878000                       # number of WriteReq MSHR miss cycles
system.cpu.dcache.WriteReq_mshr_miss_latency::total   4390878000                       # number of WriteReq MSHR miss cycles
system.cpu.dcache.WriteReq_mshr_miss_rate::.cpu.data     0.002883                       # mshr miss rate for WriteReq accesses
system.cpu.dcache.WriteReq_mshr_miss_rate::total     0.002883                       # mshr miss rate for WriteReq accesses
system.cpu.dcache.WriteReq_avg_mshr_miss_latency::.cpu.data 106826.217064                       # average WriteReq mshr miss latency
system.cpu.dcache.WriteReq_avg_mshr_miss_latency::total 106826.217064                       # average WriteReq mshr miss latency
system.cpu.dcache.SoftPFReq_hits::.cpu.data         3315                       # number of SoftPFReq hits
system.cpu.dcache.SoftPFReq_hits::total          3315                       # number of SoftPFReq hits
system.cpu.dcache.SoftPFReq_misses::.cpu.data           46                       # number of SoftPFReq misses
system.cpu.dcache.SoftPFReq_misses::total           46                       # number of SoftPFReq misses
system.cpu.dcache.SoftPFReq_accesses::.cpu.data         3361                       # number of SoftPFReq accesses(hits+misses)
system.cpu.dcache.SoftPFReq_accesses::total         3361                       # number of SoftPFReq accesses(hits+misses)
system.cpu.dcache.SoftPFReq_miss_rate::.cpu.data     0.013686                       # miss rate for SoftPFReq accesses
system.cpu.dcache.SoftPFReq_miss_rate::total     0.013686                       # miss rate for SoftPFReq accesses
system.cpu.dcache.SoftPFReq_mshr_misses::.cpu.data           41                       # number of SoftPFReq MSHR misses
system.cpu.dcache.SoftPFReq_mshr_misses::total           41                       # number of SoftPFReq MSHR misses
system.cpu.dcache.SoftPFReq_mshr_miss_latency::.cpu.data      2901000                       # number of SoftPFReq MSHR miss cycles
system.cpu.dcache.SoftPFReq_mshr_miss_latency::total      2901000                       # number of SoftPFReq MSHR miss cycles
system.cpu.dcache.SoftPFReq_mshr_miss_rate::.cpu.data     0.012199                       # mshr miss rate for SoftPFReq accesses
system.cpu.dcache.SoftPFReq_mshr_miss_rate::total     0.012199                       # mshr miss rate for SoftPFReq accesses
system.cpu.dcache.SoftPFReq_avg_mshr_miss_latency::.cpu.data 70756.097561                       # average SoftPFReq mshr miss latency
system.cpu.dcache.SoftPFReq_avg_mshr_miss_latency::total 70756.097561                       # average SoftPFReq mshr miss latency
system.cpu.dcache.LoadLockedReq_hits::.cpu.data        89081                       # number of LoadLockedReq hits
system.cpu.dcache.LoadLockedReq_hits::total        89081                       # number of LoadLockedReq hits
system.cpu.dcache.LoadLockedReq_misses::.cpu.data            1                       # number of LoadLockedReq misses
system.cpu.dcache.LoadLockedReq_misses::total            1                       # number of LoadLockedReq misses
system.cpu.dcache.LoadLockedReq_miss_latency::.cpu.data        26000                       # number of LoadLockedReq miss cycles
system.cpu.dcache.LoadLockedReq_miss_latency::total        26000                       # number of LoadLockedReq miss cycles
system.cpu.dcache.LoadLockedReq_accesses::.cpu.data        89082                       # number of LoadLockedReq accesses(hits+misses)
system.cpu.dcache.LoadLockedReq_accesses::total        89082                       # number of LoadLockedReq accesses(hits+misses)
system.cpu.dcache.LoadLockedReq_miss_rate::.cpu.data     0.000011                       # miss rate for LoadLockedReq accesses
system.cpu.dcache.LoadLockedReq_miss_rate::total     0.000011                       # miss rate for LoadLockedReq accesses
system.cpu.dcache.LoadLockedReq_avg_miss_latency::.cpu.data        26000                       # average LoadLockedReq miss latency
system.cpu.dcache.LoadLockedReq_avg_miss_latency::total        26000                       # average LoadLockedReq miss latency
system.cpu.dcache.LoadLockedReq_mshr_misses::.cpu.data            1                       # number of LoadLockedReq MSHR misses
system.cpu.dcache.LoadLockedReq_mshr_misses::total            1                       # number of LoadLockedReq MSHR misses
system.cpu.dcache.LoadLockedReq_mshr_miss_latency::.cpu.data        24000                       # number of LoadLockedReq MSHR miss cycles
system.cpu.dcache.LoadLockedReq_mshr_miss_latency::total        24000                       # number of LoadLockedReq MSHR miss cycles
system.cpu.dcache.LoadLockedReq_mshr_miss_rate::.cpu.data     0.000011                       # mshr miss rate for LoadLockedReq accesses
system.cpu.dcache.LoadLockedReq_mshr_miss_rate::total     0.000011                       # mshr miss rate for LoadLockedReq accesses
system.cpu.dcache.LoadLockedReq_avg_mshr_miss_latency::.cpu.data        24000                       # average LoadLockedReq mshr miss latency
system.cpu.dcache.LoadLockedReq_avg_mshr_miss_latency::total        24000                       # average LoadLockedReq mshr miss latency
system.cpu.dcache.StoreCondReq_hits::.cpu.data        89082                       # number of StoreCondReq hits
system.cpu.dcache.StoreCondReq_hits::total        89082                       # number of StoreCondReq hits
system.cpu.dcache.StoreCondReq_accesses::.cpu.data        89082                       # number of StoreCondReq accesses(hits+misses)
system.cpu.dcache.StoreCondReq_accesses::total        89082                       # number of StoreCondReq accesses(hits+misses)
system.cpu.dcache.tags.pwrStateResidencyTicks::UNDEFINED 114524759000                       # Cumulative time (in ticks) in various power states
system.cpu.dcache.tags.tagsinuse          2031.825717                       # Cycle average of tags in use
system.cpu.dcache.tags.total_refs            35896291                       # Total number of references to valid blocks.
system.cpu.dcache.tags.sampled_refs             63127                       # Sample count of references to valid blocks.
system.cpu.dcache.tags.avg_refs            568.636099                       # Average number of references to valid blocks.
system.cpu.dcache.tags.warmup_cycle            240000                       # Cycle when the warmup percentage was hit.
system.cpu.dcache.tags.occ_blocks::.cpu.data  2031.825717                       # Average occupied blocks per requestor
system.cpu.dcache.tags.occ_percent::.cpu.data     0.992102                       # Average percentage of cache occupancy
system.cpu.dcache.tags.occ_percent::total     0.992102                       # Average percentage of cache occupancy
system.cpu.dcache.tags.occ_task_id_blocks::1024         2048                       # Occupied blocks per task id
system.cpu.dcache.tags.age_task_id_blocks_1024::0            3                       # Occupied blocks per task id
system.cpu.dcache.tags.age_task_id_blocks_1024::1           21                       # Occupied blocks per task id
system.cpu.dcache.tags.age_task_id_blocks_1024::2          253                       # Occupied blocks per task id
system.cpu.dcache.tags.age_task_id_blocks_1024::3         1685                       # Occupied blocks per task id
system.cpu.dcache.tags.age_task_id_blocks_1024::4           86                       # Occupied blocks per task id
system.cpu.dcache.tags.occ_task_id_percent::1024            1                       # Percentage of cache occupancy per task id
system.cpu.dcache.tags.tag_accesses          35982040                       # Number of tag accesses
system.cpu.dcache.tags.data_accesses         35982040                       # Number of data accesses
system.cpu.itb.walker.pwrStateResidencyTicks::UNDEFINED 114524759000                       # Cumulative time (in ticks) in various power states
system.cpu.itb.stage2_mmu.stage2_tlb.walker.pwrStateResidencyTicks::UNDEFINED 114524759000                       # Cumulative time (in ticks) in various power states

---------- End Simulation Statistics   ----------
