
---------- Begin Simulation Statistics ----------
final_tick                               497592973000                       # Number of ticks from beginning of simulation (restored from checkpoints and never reset)
host_inst_rate                                 145305                       # Simulator instruction rate (inst/s)
host_mem_usage                                 686172                       # Number of bytes of host memory used
host_op_rate                                   267615                       # Simulator op (including micro ops) rate (op/s)
host_seconds                                   688.21                       # Real time elapsed on the host
host_tick_rate                              723027701                       # Simulator tick rate (ticks/s)
sim_freq                                 1000000000000                       # Frequency of simulated ticks
sim_insts                                   100000000                       # Number of instructions simulated
sim_ops                                     184174857                       # Number of ops (including micro ops) simulated
sim_seconds                                  0.497593                       # Number of seconds simulated
sim_ticks                                497592973000                       # Number of ticks simulated
system.cpu.branchPred.BTBCorrect                    0                       # Number of correct BTB predictions (this stat may not work properly.
system.cpu.branchPred.BTBHitPct             99.955961                       # BTB Hit Percentage
system.cpu.branchPred.BTBHits                10560996                       # Number of BTB hits
system.cpu.branchPred.BTBLookups             10565649                       # Number of BTB lookups
system.cpu.branchPred.RASInCorrect                  5                       # Number of incorrect RAS predictions.
system.cpu.branchPred.condIncorrect              1455                       # Number of conditional branches incorrect
system.cpu.branchPred.condPredicted          10562122                       # Number of conditional branches predicted
system.cpu.branchPred.indirectHits                 27                       # Number of indirect target hits.
system.cpu.branchPred.indirectLookups             200                       # Number of indirect predictor lookups.
system.cpu.branchPred.indirectMisses              173                       # Number of indirect misses.
system.cpu.branchPred.lookups                10570360                       # Number of BP lookups
system.cpu.branchPred.usedRAS                    2727                       # Number of times the RAS was used to get a target.
system.cpu.branchPredindirectMispredicted           99                       # Number of mispredicted indirect branches.
system.cpu.committedInsts                   100000000                       # Number of instructions committed
system.cpu.committedOps                     184174857                       # Number of ops (including micro ops) committed
system.cpu.cpi                               4.975930                       # CPI: cycles per instruction
system.cpu.discardedOps                          4313                       # Number of ops (including micro ops) which were discarded before commit
system.cpu.dtb.accesses                             0                       # DTB accesses
system.cpu.dtb.align_faults                         0                       # Number of TLB faults due to alignment restrictions
system.cpu.dtb.domain_faults                        0                       # Number of TLB faults due to domain restrictions
system.cpu.dtb.flush_entries                        0                       # Number of entries that have been flushed from TLB
system.cpu.dtb.flush_tlb                            0                       # Number of times complete TLB was flushed
system.cpu.dtb.flush_tlb_asid                       0                       # Number of times TLB was flushed by ASID
system.cpu.dtb.flush_tlb_mva                        0                       # Number of times TLB was flushed by MVA
system.cpu.dtb.flush_tlb_mva_asid                   0                       # Number of times TLB was flushed by MVA & ASID
system.cpu.dtb.hits                                 0                       # DTB hits
system.cpu.dtb.inst_accesses                        0                       # ITB inst accesses
system.cpu.dtb.inst_hits                            0                       # ITB inst hits
system.cpu.dtb.inst_misses                          0                       # ITB inst misses
system.cpu.dtb.misses                               0                       # DTB misses
system.cpu.dtb.perms_faults                         0                       # Number of TLB faults due to permissions restrictions
system.cpu.dtb.prefetch_faults                      0                       # Number of TLB faults due to prefetch
system.cpu.dtb.read_accesses                        0                       # DTB read accesses
system.cpu.dtb.read_hits                            0                       # DTB read hits
system.cpu.dtb.read_misses                          0                       # DTB read misses
system.cpu.dtb.stage2_mmu.stage2_tlb.accesses            0                       # DTB accesses
system.cpu.dtb.stage2_mmu.stage2_tlb.align_faults            0                       # Number of TLB faults due to alignment restrictions
system.cpu.dtb.stage2_mmu.stage2_tlb.domain_faults            0                       # Number of TLB faults due to domain restrictions
system.cpu.dtb.stage2_mmu.stage2_tlb.flush_entries            0                       # Number of entries that have been flushed from TLB
system.cpu.dtb.stage2_mmu.stage2_tlb.flush_tlb            0                       # Number of times complete TLB was flushed
system.cpu.dtb.stage2_mmu.stage2_tlb.flush_tlb_asid            0                       # Number of times TLB was flushed by ASID
system.cpu.dtb.stage2_mmu.stage2_tlb.flush_tlb_mva            0                       # Number of times TLB was flushed by MVA
system.cpu.dtb.stage2_mmu.stage2_tlb.flush_tlb_mva_asid            0                       # Number of times TLB was flushed by MVA & ASID
system.cpu.dtb.stage2_mmu.stage2_tlb.hits            0                       # DTB hits
system.cpu.dtb.stage2_mmu.stage2_tlb.inst_accesses            0                       # ITB inst accesses
system.cpu.dtb.stage2_mmu.stage2_tlb.inst_hits            0                       # ITB inst hits
system.cpu.dtb.stage2_mmu.stage2_tlb.inst_misses            0                       # ITB inst misses
system.cpu.dtb.stage2_mmu.stage2_tlb.misses            0                       # DTB misses
system.cpu.dtb.stage2_mmu.stage2_tlb.perms_faults            0                       # Number of TLB faults due to permissions restrictions
system.cpu.dtb.stage2_mmu.stage2_tlb.prefetch_faults            0                       # Number of TLB faults due to prefetch
system.cpu.dtb.stage2_mmu.stage2_tlb.read_accesses            0                       # DTB read accesses
system.cpu.dtb.stage2_mmu.stage2_tlb.read_hits            0                       # DTB read hits
system.cpu.dtb.stage2_mmu.stage2_tlb.read_misses            0                       # DTB read misses
system.cpu.dtb.stage2_mmu.stage2_tlb.walker.walkRequestOrigin_Requested::Data            0                       # Table walker requests started/completed, data/inst
system.cpu.dtb.stage2_mmu.stage2_tlb.walker.walkRequestOrigin_Requested::Inst            0                       # Table walker requests started/completed, data/inst
system.cpu.dtb.stage2_mmu.stage2_tlb.walker.walkRequestOrigin_Requested::total            0                       # Table walker requests started/completed, data/inst
system.cpu.dtb.stage2_mmu.stage2_tlb.walker.walkRequestOrigin_Completed::Data            0                       # Table walker requests started/completed, data/inst
system.cpu.dtb.stage2_mmu.stage2_tlb.walker.walkRequestOrigin_Completed::Inst            0                       # Table walker requests started/completed, data/inst
system.cpu.dtb.stage2_mmu.stage2_tlb.walker.walkRequestOrigin_Completed::total            0                       # Table walker requests started/completed, data/inst
system.cpu.dtb.stage2_mmu.stage2_tlb.walker.walkRequestOrigin::total            0                       # Table walker requests started/completed, data/inst
system.cpu.dtb.stage2_mmu.stage2_tlb.walker.walks            0                       # Table walker walks requested
system.cpu.dtb.stage2_mmu.stage2_tlb.write_accesses            0                       # DTB write accesses
system.cpu.dtb.stage2_mmu.stage2_tlb.write_hits            0                       # DTB write hits
system.cpu.dtb.stage2_mmu.stage2_tlb.write_misses            0                       # DTB write misses
system.cpu.dtb.walker.walkRequestOrigin_Requested::Data            0                       # Table walker requests started/completed, data/inst
system.cpu.dtb.walker.walkRequestOrigin_Requested::Inst            0                       # Table walker requests started/completed, data/inst
system.cpu.dtb.walker.walkRequestOrigin_Requested::total            0                       # Table walker requests started/completed, data/inst
system.cpu.dtb.walker.walkRequestOrigin_Completed::Data            0                       # Table walker requests started/completed, data/inst
system.cpu.dtb.walker.walkRequestOrigin_Completed::Inst            0                       # Table walker requests started/completed, data/inst
system.cpu.dtb.walker.walkRequestOrigin_Completed::total            0                       # Table walker requests started/completed, data/inst
system.cpu.dtb.walker.walkRequestOrigin::total            0                       # Table walker requests started/completed, data/inst
system.cpu.dtb.walker.walks                         0                       # Table walker walks requested
system.cpu.dtb.write_accesses                       0                       # DTB write accesses
system.cpu.dtb.write_hits                           0                       # DTB write hits
system.cpu.dtb.write_misses                         0                       # DTB write misses
system.cpu.fetch2.amo_instructions                  0                       # Number of memory atomic instructions successfully decoded
system.cpu.fetch2.fp_instructions                   0                       # Number of floating point instructions successfully decoded
system.cpu.fetch2.int_instructions           44895256                       # Number of integer instructions successfully decoded
system.cpu.fetch2.load_instructions           2086495                       # Number of memory load instructions successfully decoded
system.cpu.fetch2.store_instructions           169155                       # Number of memory store instructions successfully decoded
system.cpu.fetch2.vec_instructions                  0                       # Number of SIMD instructions successfully decoded
system.cpu.idleCycles                       279022233                       # Total number of cycles that the object has spent stopped
system.cpu.ipc                               0.200967                       # IPC: instructions per cycle
system.cpu.itb.accesses                             0                       # DTB accesses
system.cpu.itb.align_faults                         0                       # Number of TLB faults due to alignment restrictions
system.cpu.itb.domain_faults                        0                       # Number of TLB faults due to domain restrictions
system.cpu.itb.flush_entries                        0                       # Number of entries that have been flushed from TLB
system.cpu.itb.flush_tlb                            0                       # Number of times complete TLB was flushed
system.cpu.itb.flush_tlb_asid                       0                       # Number of times TLB was flushed by ASID
system.cpu.itb.flush_tlb_mva                        0                       # Number of times TLB was flushed by MVA
system.cpu.itb.flush_tlb_mva_asid                   0                       # Number of times TLB was flushed by MVA & ASID
system.cpu.itb.hits                                 0                       # DTB hits
system.cpu.itb.inst_accesses                        0                       # ITB inst accesses
system.cpu.itb.inst_hits                            0                       # ITB inst hits
system.cpu.itb.inst_misses                          0                       # ITB inst misses
system.cpu.itb.misses                               0                       # DTB misses
system.cpu.itb.perms_faults                         0                       # Number of TLB faults due to permissions restrictions
system.cpu.itb.prefetch_faults                      0                       # Number of TLB faults due to prefetch
system.cpu.itb.read_accesses                        0                       # DTB read accesses
system.cpu.itb.read_hits                            0                       # DTB read hits
system.cpu.itb.read_misses                          0                       # DTB read misses
system.cpu.itb.stage2_mmu.stage2_tlb.accesses            0                       # DTB accesses
system.cpu.itb.stage2_mmu.stage2_tlb.align_faults            0                       # Number of TLB faults due to alignment restrictions
system.cpu.itb.stage2_mmu.stage2_tlb.domain_faults            0                       # Number of TLB faults due to domain restrictions
system.cpu.itb.stage2_mmu.stage2_tlb.flush_entries            0                       # Number of entries that have been flushed from TLB
system.cpu.itb.stage2_mmu.stage2_tlb.flush_tlb            0                       # Number of times complete TLB was flushed
system.cpu.itb.stage2_mmu.stage2_tlb.flush_tlb_asid            0                       # Number of times TLB was flushed by ASID
system.cpu.itb.stage2_mmu.stage2_tlb.flush_tlb_mva            0                       # Number of times TLB was flushed by MVA
system.cpu.itb.stage2_mmu.stage2_tlb.flush_tlb_mva_asid            0                       # Number of times TLB was flushed by MVA & ASID
system.cpu.itb.stage2_mmu.stage2_tlb.hits            0                       # DTB hits
system.cpu.itb.stage2_mmu.stage2_tlb.inst_accesses            0                       # ITB inst accesses
system.cpu.itb.stage2_mmu.stage2_tlb.inst_hits            0                       # ITB inst hits
system.cpu.itb.stage2_mmu.stage2_tlb.inst_misses            0                       # ITB inst misses
system.cpu.itb.stage2_mmu.stage2_tlb.misses            0                       # DTB misses
system.cpu.itb.stage2_mmu.stage2_tlb.perms_faults            0                       # Number of TLB faults due to permissions restrictions
system.cpu.itb.stage2_mmu.stage2_tlb.prefetch_faults            0                       # Number of TLB faults due to prefetch
system.cpu.itb.stage2_mmu.stage2_tlb.read_accesses            0                       # DTB read accesses
system.cpu.itb.stage2_mmu.stage2_tlb.read_hits            0                       # DTB read hits
system.cpu.itb.stage2_mmu.stage2_tlb.read_misses            0                       # DTB read misses
system.cpu.itb.stage2_mmu.stage2_tlb.walker.walkRequestOrigin_Requested::Data            0                       # Table walker requests started/completed, data/inst
system.cpu.itb.stage2_mmu.stage2_tlb.walker.walkRequestOrigin_Requested::Inst            0                       # Table walker requests started/completed, data/inst
system.cpu.itb.stage2_mmu.stage2_tlb.walker.walkRequestOrigin_Requested::total            0                       # Table walker requests started/completed, data/inst
system.cpu.itb.stage2_mmu.stage2_tlb.walker.walkRequestOrigin_Completed::Data            0                       # Table walker requests started/completed, data/inst
system.cpu.itb.stage2_mmu.stage2_tlb.walker.walkRequestOrigin_Completed::Inst            0                       # Table walker requests started/completed, data/inst
system.cpu.itb.stage2_mmu.stage2_tlb.walker.walkRequestOrigin_Completed::total            0                       # Table walker requests started/completed, data/inst
system.cpu.itb.stage2_mmu.stage2_tlb.walker.walkRequestOrigin::total            0                       # Table walker requests started/completed, data/inst
system.cpu.itb.stage2_mmu.stage2_tlb.walker.walks            0                       # Table walker walks requested
system.cpu.itb.stage2_mmu.stage2_tlb.write_accesses            0                       # DTB write accesses
system.cpu.itb.stage2_mmu.stage2_tlb.write_hits            0                       # DTB write hits
system.cpu.itb.stage2_mmu.stage2_tlb.write_misses            0                       # DTB write misses
system.cpu.itb.walker.walkRequestOrigin_Requested::Data            0                       # Table walker requests started/completed, data/inst
system.cpu.itb.walker.walkRequestOrigin_Requested::Inst            0                       # Table walker requests started/completed, data/inst
system.cpu.itb.walker.walkRequestOrigin_Requested::total            0                       # Table walker requests started/completed, data/inst
system.cpu.itb.walker.walkRequestOrigin_Completed::Data            0                       # Table walker requests started/completed, data/inst
system.cpu.itb.walker.walkRequestOrigin_Completed::Inst            0                       # Table walker requests started/completed, data/inst
system.cpu.itb.walker.walkRequestOrigin_Completed::total            0                       # Table walker requests started/completed, data/inst
system.cpu.itb.walker.walkRequestOrigin::total            0                       # Table walker requests started/completed, data/inst
system.cpu.itb.walker.walks                         0                       # Table walker walks requested
system.cpu.itb.write_accesses                       0                       # DTB write accesses
system.cpu.itb.write_hits                           0                       # DTB write hits
system.cpu.itb.write_misses                         0                       # DTB write misses
system.cpu.numCycles                        497592973                       # number of cpu cycles simulated
system.cpu.numFetchSuspends                         0                       # Number of times Execute suspended instruction fetching
system.cpu.numWorkItemsCompleted                    0                       # number of work items this cpu completed
system.cpu.numWorkItemsStarted                      0                       # number of work items this cpu started
system.cpu.op_class_0::No_OpClass                   0      0.00%      0.00% # Class of committed instruction
system.cpu.op_class_0::IntAlu                97640483     53.02%     53.02% # Class of committed instruction
system.cpu.op_class_0::IntMult                 114699      0.06%     53.08% # Class of committed instruction
system.cpu.op_class_0::IntDiv                       0      0.00%     53.08% # Class of committed instruction
system.cpu.op_class_0::FloatAdd                     0      0.00%     53.08% # Class of committed instruction
system.cpu.op_class_0::FloatCmp                     0      0.00%     53.08% # Class of committed instruction
system.cpu.op_class_0::FloatCvt                     0      0.00%     53.08% # Class of committed instruction
system.cpu.op_class_0::FloatMult                    0      0.00%     53.08% # Class of committed instruction
system.cpu.op_class_0::FloatMultAcc                 0      0.00%     53.08% # Class of committed instruction
system.cpu.op_class_0::FloatDiv                     0      0.00%     53.08% # Class of committed instruction
system.cpu.op_class_0::FloatMisc                    0      0.00%     53.08% # Class of committed instruction
system.cpu.op_class_0::FloatSqrt                    0      0.00%     53.08% # Class of committed instruction
system.cpu.op_class_0::SimdAdd                      8      0.00%     53.08% # Class of committed instruction
system.cpu.op_class_0::SimdAddAcc                   0      0.00%     53.08% # Class of committed instruction
system.cpu.op_class_0::SimdAlu                      8      0.00%     53.08% # Class of committed instruction
system.cpu.op_class_0::SimdCmp                      6      0.00%     53.08% # Class of committed instruction
system.cpu.op_class_0::SimdCvt                      0      0.00%     53.08% # Class of committed instruction
system.cpu.op_class_0::SimdMisc                     1      0.00%     53.08% # Class of committed instruction
system.cpu.op_class_0::SimdMult                     0      0.00%     53.08% # Class of committed instruction
system.cpu.op_class_0::SimdMultAcc                  0      0.00%     53.08% # Class of committed instruction
system.cpu.op_class_0::SimdShift                    0      0.00%     53.08% # Class of committed instruction
system.cpu.op_class_0::SimdShiftAcc                 0      0.00%     53.08% # Class of committed instruction
system.cpu.op_class_0::SimdDiv                      0      0.00%     53.08% # Class of committed instruction
system.cpu.op_class_0::SimdSqrt                     0      0.00%     53.08% # Class of committed instruction
system.cpu.op_class_0::SimdFloatAdd                 0      0.00%     53.08% # Class of committed instruction
system.cpu.op_class_0::SimdFloatAlu                 0      0.00%     53.08% # Class of committed instruction
system.cpu.op_class_0::SimdFloatCmp                 0      0.00%     53.08% # Class of committed instruction
system.cpu.op_class_0::SimdFloatCvt                 0      0.00%     53.08% # Class of committed instruction
system.cpu.op_class_0::SimdFloatDiv                 0      0.00%     53.08% # Class of committed instruction
system.cpu.op_class_0::SimdFloatMisc               23      0.00%     53.08% # Class of committed instruction
system.cpu.op_class_0::SimdFloatMult                0      0.00%     53.08% # Class of committed instruction
system.cpu.op_class_0::SimdFloatMultAcc             0      0.00%     53.08% # Class of committed instruction
system.cpu.op_class_0::SimdFloatSqrt                0      0.00%     53.08% # Class of committed instruction
system.cpu.op_class_0::SimdReduceAdd                0      0.00%     53.08% # Class of committed instruction
system.cpu.op_class_0::SimdReduceAlu                0      0.00%     53.08% # Class of committed instruction
system.cpu.op_class_0::SimdReduceCmp                0      0.00%     53.08% # Class of committed instruction
system.cpu.op_class_0::SimdFloatReduceAdd            0      0.00%     53.08% # Class of committed instruction
system.cpu.op_class_0::SimdFloatReduceCmp            0      0.00%     53.08% # Class of committed instruction
system.cpu.op_class_0::SimdAes                      0      0.00%     53.08% # Class of committed instruction
system.cpu.op_class_0::SimdAesMix                   0      0.00%     53.08% # Class of committed instruction
system.cpu.op_class_0::SimdSha1Hash                 0      0.00%     53.08% # Class of committed instruction
system.cpu.op_class_0::SimdSha1Hash2                0      0.00%     53.08% # Class of committed instruction
system.cpu.op_class_0::SimdSha256Hash               0      0.00%     53.08% # Class of committed instruction
system.cpu.op_class_0::SimdSha256Hash2              0      0.00%     53.08% # Class of committed instruction
system.cpu.op_class_0::SimdShaSigma2                0      0.00%     53.08% # Class of committed instruction
system.cpu.op_class_0::SimdShaSigma3                0      0.00%     53.08% # Class of committed instruction
system.cpu.op_class_0::SimdPredAlu                  0      0.00%     53.08% # Class of committed instruction
system.cpu.op_class_0::MemRead                2082677      1.13%     54.21% # Class of committed instruction
system.cpu.op_class_0::MemWrite              84336952     45.79%    100.00% # Class of committed instruction
system.cpu.op_class_0::FloatMemRead                 0      0.00%    100.00% # Class of committed instruction
system.cpu.op_class_0::FloatMemWrite                0      0.00%    100.00% # Class of committed instruction
system.cpu.op_class_0::IprAccess                    0      0.00%    100.00% # Class of committed instruction
system.cpu.op_class_0::InstPrefetch                 0      0.00%    100.00% # Class of committed instruction
system.cpu.op_class_0::total                184174857                       # Class of committed instruction
system.cpu.tickCycles                       218570740                       # Number of cycles that the object actually ticked
system.cpu.workload.numSyscalls                    18                       # Number of system calls
system.membus.snoop_filter.hit_multi_requests            0                       # Number of requests hitting in the snoop filter with multiple (>1) holders of the requested data.
system.membus.snoop_filter.hit_multi_snoops            0                       # Number of snoops hitting in the snoop filter with multiple (>1) holders of the requested data.
system.membus.snoop_filter.hit_single_requests      2623599                       # Number of requests hitting in the snoop filter with a single holder of the requested data.
system.membus.snoop_filter.hit_single_snoops            0                       # Number of snoops hitting in the snoop filter with a single holder of the requested data.
system.membus.snoop_filter.tot_requests       5255775                       # Total number of requests made to the snoop filter.
system.membus.snoop_filter.tot_snoops               0                       # Total number of snoops made to the snoop filter.
system.tol2bus.snoop_filter.hit_multi_requests           61                       # Number of requests hitting in the snoop filter with multiple (>1) holders of the requested data.
system.tol2bus.snoop_filter.hit_multi_snoops            0                       # Number of snoops hitting in the snoop filter with multiple (>1) holders of the requested data.
system.tol2bus.snoop_filter.hit_single_requests      2630834                       # Number of requests hitting in the snoop filter with a single holder of the requested data.
system.tol2bus.snoop_filter.hit_single_snoops          413                       # Number of snoops hitting in the snoop filter with a single holder of the requested data.
system.tol2bus.snoop_filter.tot_requests      5263091                       # Total number of requests made to the snoop filter.
system.tol2bus.snoop_filter.tot_snoops            413                       # Total number of snoops made to the snoop filter.
system.membus.pwrStateResidencyTicks::UNDEFINED 497592973000                       # Cumulative time (in ticks) in various power states
system.membus.trans_dist::ReadResp                584                       # Transaction distribution
system.membus.trans_dist::WritebackDirty      2623436                       # Transaction distribution
system.membus.trans_dist::CleanEvict              149                       # Transaction distribution
system.membus.trans_dist::ReadExReq           2631606                       # Transaction distribution
system.membus.trans_dist::ReadExResp          2631606                       # Transaction distribution
system.membus.trans_dist::ReadSharedReq           584                       # Transaction distribution
system.membus.pkt_count_system.l2.mem_side::system.mem_ctrls.port      7887965                       # Packet count per connected master and slave (bytes)
system.membus.pkt_count::total                7887965                       # Packet count per connected master and slave (bytes)
system.membus.pkt_size_system.l2.mem_side::system.mem_ctrls.port    672720128                       # Cumulative packet size per connected master and slave (bytes)
system.membus.pkt_size::total               672720128                       # Cumulative packet size per connected master and slave (bytes)
system.membus.snoops                                0                       # Total snoops (count)
system.membus.snoopTraffic                          0                       # Total snoop traffic (bytes)
system.membus.snoop_fanout::samples           2632190                       # Request fanout histogram
system.membus.snoop_fanout::mean                    0                       # Request fanout histogram
system.membus.snoop_fanout::stdev                   0                       # Request fanout histogram
system.membus.snoop_fanout::underflows              0      0.00%      0.00% # Request fanout histogram
system.membus.snoop_fanout::0                 2632190    100.00%    100.00% # Request fanout histogram
system.membus.snoop_fanout::1                       0      0.00%    100.00% # Request fanout histogram
system.membus.snoop_fanout::overflows               0      0.00%    100.00% # Request fanout histogram
system.membus.snoop_fanout::min_value               0                       # Request fanout histogram
system.membus.snoop_fanout::max_value               0                       # Request fanout histogram
system.membus.snoop_fanout::total             2632190                       # Request fanout histogram
system.membus.respLayer1.occupancy        24418688000                       # Layer occupancy (ticks)
system.membus.respLayer1.utilization              4.9                       # Layer utilization (%)
system.membus.reqLayer0.occupancy         26243263000                       # Layer occupancy (ticks)
system.membus.reqLayer0.utilization               5.3                       # Layer utilization (%)
system.tol2bus.pwrStateResidencyTicks::UNDEFINED 497592973000                       # Cumulative time (in ticks) in various power states
system.tol2bus.trans_dist::ReadResp               644                       # Transaction distribution
system.tol2bus.trans_dist::WritebackDirty      5254056                       # Transaction distribution
system.tol2bus.trans_dist::CleanEvict             776                       # Transaction distribution
system.tol2bus.trans_dist::ReadExReq          2631613                       # Transaction distribution
system.tol2bus.trans_dist::ReadExResp         2631613                       # Transaction distribution
system.tol2bus.trans_dist::ReadCleanReq           399                       # Transaction distribution
system.tol2bus.trans_dist::ReadSharedReq          245                       # Transaction distribution
system.tol2bus.pkt_count_system.cpu.icache.mem_side::system.l2.cpu_side          798                       # Packet count per connected master and slave (bytes)
system.tol2bus.pkt_count_system.cpu.dcache.mem_side::system.l2.cpu_side      7894550                       # Packet count per connected master and slave (bytes)
system.tol2bus.pkt_count::total               7895348                       # Packet count per connected master and slave (bytes)
system.tol2bus.pkt_size_system.cpu.icache.mem_side::system.l2.cpu_side        51072                       # Cumulative packet size per connected master and slave (bytes)
system.tol2bus.pkt_size_system.cpu.dcache.mem_side::system.l2.cpu_side    673597184                       # Cumulative packet size per connected master and slave (bytes)
system.tol2bus.pkt_size::total              673648256                       # Cumulative packet size per connected master and slave (bytes)
system.tol2bus.snoops                         2623998                       # Total snoops (count)
system.tol2bus.snoopTraffic                 335799808                       # Total snoop traffic (bytes)
system.tol2bus.snoop_fanout::samples          5256255                       # Request fanout histogram
system.tol2bus.snoop_fanout::mean            0.000090                       # Request fanout histogram
system.tol2bus.snoop_fanout::stdev           0.009496                       # Request fanout histogram
system.tol2bus.snoop_fanout::underflows             0      0.00%      0.00% # Request fanout histogram
system.tol2bus.snoop_fanout::0                5255781     99.99%     99.99% # Request fanout histogram
system.tol2bus.snoop_fanout::1                    474      0.01%    100.00% # Request fanout histogram
system.tol2bus.snoop_fanout::2                      0      0.00%    100.00% # Request fanout histogram
system.tol2bus.snoop_fanout::overflows              0      0.00%    100.00% # Request fanout histogram
system.tol2bus.snoop_fanout::min_value              0                       # Request fanout histogram
system.tol2bus.snoop_fanout::max_value              1                       # Request fanout histogram
system.tol2bus.snoop_fanout::total            5256255                       # Request fanout histogram
system.tol2bus.reqLayer0.occupancy        15785571000                       # Layer occupancy (ticks)
system.tol2bus.reqLayer0.utilization              3.2                       # Layer utilization (%)
system.tol2bus.respLayer1.occupancy       13159297992                       # Layer occupancy (ticks)
system.tol2bus.respLayer1.utilization             2.6                       # Layer utilization (%)
system.tol2bus.respLayer0.occupancy           1995999                       # Layer occupancy (ticks)
system.tol2bus.respLayer0.utilization             0.0                       # Layer utilization (%)
system.voltage_domain.voltage                       1                       # Voltage in Volts
system.clk_domain.clock                          1000                       # Clock period in ticks
system.l2.pwrStateResidencyTicks::UNDEFINED 497592973000                       # Cumulative time (in ticks) in various power states
system.l2.demand_hits::.cpu.inst                   16                       # number of demand (read+write) hits
system.l2.demand_hits::.cpu.data                   42                       # number of demand (read+write) hits
system.l2.demand_hits::total                       58                       # number of demand (read+write) hits
system.l2.overall_hits::.cpu.inst                  16                       # number of overall hits
system.l2.overall_hits::.cpu.data                  42                       # number of overall hits
system.l2.overall_hits::total                      58                       # number of overall hits
system.l2.demand_misses::.cpu.inst                383                       # number of demand (read+write) misses
system.l2.demand_misses::.cpu.data            2631816                       # number of demand (read+write) misses
system.l2.demand_misses::total                2632199                       # number of demand (read+write) misses
system.l2.overall_misses::.cpu.inst               383                       # number of overall misses
system.l2.overall_misses::.cpu.data           2631816                       # number of overall misses
system.l2.overall_misses::total               2632199                       # number of overall misses
system.l2.demand_miss_latency::.cpu.inst     41500000                       # number of demand (read+write) miss cycles
system.l2.demand_miss_latency::.cpu.data 299840579000                       # number of demand (read+write) miss cycles
system.l2.demand_miss_latency::total     299882079000                       # number of demand (read+write) miss cycles
system.l2.overall_miss_latency::.cpu.inst     41500000                       # number of overall miss cycles
system.l2.overall_miss_latency::.cpu.data 299840579000                       # number of overall miss cycles
system.l2.overall_miss_latency::total    299882079000                       # number of overall miss cycles
system.l2.demand_accesses::.cpu.inst              399                       # number of demand (read+write) accesses
system.l2.demand_accesses::.cpu.data          2631858                       # number of demand (read+write) accesses
system.l2.demand_accesses::total              2632257                       # number of demand (read+write) accesses
system.l2.overall_accesses::.cpu.inst             399                       # number of overall (read+write) accesses
system.l2.overall_accesses::.cpu.data         2631858                       # number of overall (read+write) accesses
system.l2.overall_accesses::total             2632257                       # number of overall (read+write) accesses
system.l2.demand_miss_rate::.cpu.inst        0.959900                       # miss rate for demand accesses
system.l2.demand_miss_rate::.cpu.data        0.999984                       # miss rate for demand accesses
system.l2.demand_miss_rate::total            0.999978                       # miss rate for demand accesses
system.l2.overall_miss_rate::.cpu.inst       0.959900                       # miss rate for overall accesses
system.l2.overall_miss_rate::.cpu.data       0.999984                       # miss rate for overall accesses
system.l2.overall_miss_rate::total           0.999978                       # miss rate for overall accesses
system.l2.demand_avg_miss_latency::.cpu.inst 108355.091384                       # average overall miss latency
system.l2.demand_avg_miss_latency::.cpu.data 113929.157282                       # average overall miss latency
system.l2.demand_avg_miss_latency::total 113928.346223                       # average overall miss latency
system.l2.overall_avg_miss_latency::.cpu.inst 108355.091384                       # average overall miss latency
system.l2.overall_avg_miss_latency::.cpu.data 113929.157282                       # average overall miss latency
system.l2.overall_avg_miss_latency::total 113928.346223                       # average overall miss latency
system.l2.blocked_cycles::no_mshrs                  0                       # number of cycles access was blocked
system.l2.blocked_cycles::no_targets                0                       # number of cycles access was blocked
system.l2.blocked::no_mshrs                         0                       # number of cycles access was blocked
system.l2.blocked::no_targets                       0                       # number of cycles access was blocked
system.l2.avg_blocked_cycles::no_mshrs            nan                       # average number of cycles each access was blocked
system.l2.avg_blocked_cycles::no_targets          nan                       # average number of cycles each access was blocked
system.l2.writebacks::.writebacks             2623436                       # number of writebacks
system.l2.writebacks::total                   2623436                       # number of writebacks
system.l2.demand_mshr_hits::.cpu.inst               1                       # number of demand (read+write) MSHR hits
system.l2.demand_mshr_hits::.cpu.data               8                       # number of demand (read+write) MSHR hits
system.l2.demand_mshr_hits::total                   9                       # number of demand (read+write) MSHR hits
system.l2.overall_mshr_hits::.cpu.inst              1                       # number of overall MSHR hits
system.l2.overall_mshr_hits::.cpu.data              8                       # number of overall MSHR hits
system.l2.overall_mshr_hits::total                  9                       # number of overall MSHR hits
system.l2.demand_mshr_misses::.cpu.inst           382                       # number of demand (read+write) MSHR misses
system.l2.demand_mshr_misses::.cpu.data       2631808                       # number of demand (read+write) MSHR misses
system.l2.demand_mshr_misses::total           2632190                       # number of demand (read+write) MSHR misses
system.l2.overall_mshr_misses::.cpu.inst          382                       # number of overall MSHR misses
system.l2.overall_mshr_misses::.cpu.data      2631808                       # number of overall MSHR misses
system.l2.overall_mshr_misses::total          2632190                       # number of overall MSHR misses
system.l2.demand_mshr_miss_latency::.cpu.inst     33766000                       # number of demand (read+write) MSHR miss cycles
system.l2.demand_mshr_miss_latency::.cpu.data 247203779000                       # number of demand (read+write) MSHR miss cycles
system.l2.demand_mshr_miss_latency::total 247237545000                       # number of demand (read+write) MSHR miss cycles
system.l2.overall_mshr_miss_latency::.cpu.inst     33766000                       # number of overall MSHR miss cycles
system.l2.overall_mshr_miss_latency::.cpu.data 247203779000                       # number of overall MSHR miss cycles
system.l2.overall_mshr_miss_latency::total 247237545000                       # number of overall MSHR miss cycles
system.l2.demand_mshr_miss_rate::.cpu.inst     0.957393                       # mshr miss rate for demand accesses
system.l2.demand_mshr_miss_rate::.cpu.data     0.999981                       # mshr miss rate for demand accesses
system.l2.demand_mshr_miss_rate::total       0.999975                       # mshr miss rate for demand accesses
system.l2.overall_mshr_miss_rate::.cpu.inst     0.957393                       # mshr miss rate for overall accesses
system.l2.overall_mshr_miss_rate::.cpu.data     0.999981                       # mshr miss rate for overall accesses
system.l2.overall_mshr_miss_rate::total      0.999975                       # mshr miss rate for overall accesses
system.l2.demand_avg_mshr_miss_latency::.cpu.inst 88392.670157                       # average overall mshr miss latency
system.l2.demand_avg_mshr_miss_latency::.cpu.data 93929.260417                       # average overall mshr miss latency
system.l2.demand_avg_mshr_miss_latency::total 93928.456912                       # average overall mshr miss latency
system.l2.overall_avg_mshr_miss_latency::.cpu.inst 88392.670157                       # average overall mshr miss latency
system.l2.overall_avg_mshr_miss_latency::.cpu.data 93929.260417                       # average overall mshr miss latency
system.l2.overall_avg_mshr_miss_latency::total 93928.456912                       # average overall mshr miss latency
system.l2.replacements                        2623998                       # number of replacements
system.l2.WritebackDirty_hits::.writebacks      2630620                       # number of WritebackDirty hits
system.l2.WritebackDirty_hits::total          2630620                       # number of WritebackDirty hits
system.l2.WritebackDirty_accesses::.writebacks      2630620                       # number of WritebackDirty accesses(hits+misses)
system.l2.WritebackDirty_accesses::total      2630620                       # number of WritebackDirty accesses(hits+misses)
system.l2.ReadExReq_hits::.cpu.data                 7                       # number of ReadExReq hits
system.l2.ReadExReq_hits::total                     7                       # number of ReadExReq hits
system.l2.ReadExReq_misses::.cpu.data         2631606                       # number of ReadExReq misses
system.l2.ReadExReq_misses::total             2631606                       # number of ReadExReq misses
system.l2.ReadExReq_miss_latency::.cpu.data 299816990000                       # number of ReadExReq miss cycles
system.l2.ReadExReq_miss_latency::total  299816990000                       # number of ReadExReq miss cycles
system.l2.ReadExReq_accesses::.cpu.data       2631613                       # number of ReadExReq accesses(hits+misses)
system.l2.ReadExReq_accesses::total           2631613                       # number of ReadExReq accesses(hits+misses)
system.l2.ReadExReq_miss_rate::.cpu.data     0.999997                       # miss rate for ReadExReq accesses
system.l2.ReadExReq_miss_rate::total         0.999997                       # miss rate for ReadExReq accesses
system.l2.ReadExReq_avg_miss_latency::.cpu.data 113929.285007                       # average ReadExReq miss latency
system.l2.ReadExReq_avg_miss_latency::total 113929.285007                       # average ReadExReq miss latency
system.l2.ReadExReq_mshr_misses::.cpu.data      2631606                       # number of ReadExReq MSHR misses
system.l2.ReadExReq_mshr_misses::total        2631606                       # number of ReadExReq MSHR misses
system.l2.ReadExReq_mshr_miss_latency::.cpu.data 247184870000                       # number of ReadExReq MSHR miss cycles
system.l2.ReadExReq_mshr_miss_latency::total 247184870000                       # number of ReadExReq MSHR miss cycles
system.l2.ReadExReq_mshr_miss_rate::.cpu.data     0.999997                       # mshr miss rate for ReadExReq accesses
system.l2.ReadExReq_mshr_miss_rate::total     0.999997                       # mshr miss rate for ReadExReq accesses
system.l2.ReadExReq_avg_mshr_miss_latency::.cpu.data 93929.285007                       # average ReadExReq mshr miss latency
system.l2.ReadExReq_avg_mshr_miss_latency::total 93929.285007                       # average ReadExReq mshr miss latency
system.l2.ReadCleanReq_hits::.cpu.inst             16                       # number of ReadCleanReq hits
system.l2.ReadCleanReq_hits::total                 16                       # number of ReadCleanReq hits
system.l2.ReadCleanReq_misses::.cpu.inst          383                       # number of ReadCleanReq misses
system.l2.ReadCleanReq_misses::total              383                       # number of ReadCleanReq misses
system.l2.ReadCleanReq_miss_latency::.cpu.inst     41500000                       # number of ReadCleanReq miss cycles
system.l2.ReadCleanReq_miss_latency::total     41500000                       # number of ReadCleanReq miss cycles
system.l2.ReadCleanReq_accesses::.cpu.inst          399                       # number of ReadCleanReq accesses(hits+misses)
system.l2.ReadCleanReq_accesses::total            399                       # number of ReadCleanReq accesses(hits+misses)
system.l2.ReadCleanReq_miss_rate::.cpu.inst     0.959900                       # miss rate for ReadCleanReq accesses
system.l2.ReadCleanReq_miss_rate::total      0.959900                       # miss rate for ReadCleanReq accesses
system.l2.ReadCleanReq_avg_miss_latency::.cpu.inst 108355.091384                       # average ReadCleanReq miss latency
system.l2.ReadCleanReq_avg_miss_latency::total 108355.091384                       # average ReadCleanReq miss latency
system.l2.ReadCleanReq_mshr_hits::.cpu.inst            1                       # number of ReadCleanReq MSHR hits
system.l2.ReadCleanReq_mshr_hits::total             1                       # number of ReadCleanReq MSHR hits
system.l2.ReadCleanReq_mshr_misses::.cpu.inst          382                       # number of ReadCleanReq MSHR misses
system.l2.ReadCleanReq_mshr_misses::total          382                       # number of ReadCleanReq MSHR misses
system.l2.ReadCleanReq_mshr_miss_latency::.cpu.inst     33766000                       # number of ReadCleanReq MSHR miss cycles
system.l2.ReadCleanReq_mshr_miss_latency::total     33766000                       # number of ReadCleanReq MSHR miss cycles
system.l2.ReadCleanReq_mshr_miss_rate::.cpu.inst     0.957393                       # mshr miss rate for ReadCleanReq accesses
system.l2.ReadCleanReq_mshr_miss_rate::total     0.957393                       # mshr miss rate for ReadCleanReq accesses
system.l2.ReadCleanReq_avg_mshr_miss_latency::.cpu.inst 88392.670157                       # average ReadCleanReq mshr miss latency
system.l2.ReadCleanReq_avg_mshr_miss_latency::total 88392.670157                       # average ReadCleanReq mshr miss latency
system.l2.ReadSharedReq_hits::.cpu.data            35                       # number of ReadSharedReq hits
system.l2.ReadSharedReq_hits::total                35                       # number of ReadSharedReq hits
system.l2.ReadSharedReq_misses::.cpu.data          210                       # number of ReadSharedReq misses
system.l2.ReadSharedReq_misses::total             210                       # number of ReadSharedReq misses
system.l2.ReadSharedReq_miss_latency::.cpu.data     23589000                       # number of ReadSharedReq miss cycles
system.l2.ReadSharedReq_miss_latency::total     23589000                       # number of ReadSharedReq miss cycles
system.l2.ReadSharedReq_accesses::.cpu.data          245                       # number of ReadSharedReq accesses(hits+misses)
system.l2.ReadSharedReq_accesses::total           245                       # number of ReadSharedReq accesses(hits+misses)
system.l2.ReadSharedReq_miss_rate::.cpu.data     0.857143                       # miss rate for ReadSharedReq accesses
system.l2.ReadSharedReq_miss_rate::total     0.857143                       # miss rate for ReadSharedReq accesses
system.l2.ReadSharedReq_avg_miss_latency::.cpu.data 112328.571429                       # average ReadSharedReq miss latency
system.l2.ReadSharedReq_avg_miss_latency::total 112328.571429                       # average ReadSharedReq miss latency
system.l2.ReadSharedReq_mshr_hits::.cpu.data            8                       # number of ReadSharedReq MSHR hits
system.l2.ReadSharedReq_mshr_hits::total            8                       # number of ReadSharedReq MSHR hits
system.l2.ReadSharedReq_mshr_misses::.cpu.data          202                       # number of ReadSharedReq MSHR misses
system.l2.ReadSharedReq_mshr_misses::total          202                       # number of ReadSharedReq MSHR misses
system.l2.ReadSharedReq_mshr_miss_latency::.cpu.data     18909000                       # number of ReadSharedReq MSHR miss cycles
system.l2.ReadSharedReq_mshr_miss_latency::total     18909000                       # number of ReadSharedReq MSHR miss cycles
system.l2.ReadSharedReq_mshr_miss_rate::.cpu.data     0.824490                       # mshr miss rate for ReadSharedReq accesses
system.l2.ReadSharedReq_mshr_miss_rate::total     0.824490                       # mshr miss rate for ReadSharedReq accesses
system.l2.ReadSharedReq_avg_mshr_miss_latency::.cpu.data 93608.910891                       # average ReadSharedReq mshr miss latency
system.l2.ReadSharedReq_avg_mshr_miss_latency::total 93608.910891                       # average ReadSharedReq mshr miss latency
system.l2.tags.pwrStateResidencyTicks::UNDEFINED 497592973000                       # Cumulative time (in ticks) in various power states
system.l2.tags.tagsinuse                  8102.718274                       # Cycle average of tags in use
system.l2.tags.total_refs                     5263021                       # Total number of references to valid blocks.
system.l2.tags.sampled_refs                   2632190                       # Sample count of references to valid blocks.
system.l2.tags.avg_refs                      1.999484                       # Average number of references to valid blocks.
system.l2.tags.warmup_cycle                     92000                       # Cycle when the warmup percentage was hit.
system.l2.tags.occ_blocks::.cpu.inst         3.645716                       # Average occupied blocks per requestor
system.l2.tags.occ_blocks::.cpu.data      8099.072558                       # Average occupied blocks per requestor
system.l2.tags.occ_percent::.cpu.inst        0.000445                       # Average percentage of cache occupancy
system.l2.tags.occ_percent::.cpu.data        0.988656                       # Average percentage of cache occupancy
system.l2.tags.occ_percent::total            0.989101                       # Average percentage of cache occupancy
system.l2.tags.occ_task_id_blocks::1024          8192                       # Occupied blocks per task id
system.l2.tags.age_task_id_blocks_1024::0           54                       # Occupied blocks per task id
system.l2.tags.age_task_id_blocks_1024::1          478                       # Occupied blocks per task id
system.l2.tags.age_task_id_blocks_1024::2         4816                       # Occupied blocks per task id
system.l2.tags.age_task_id_blocks_1024::3         2844                       # Occupied blocks per task id
system.l2.tags.occ_task_id_percent::1024            1                       # Percentage of cache occupancy per task id
system.l2.tags.tag_accesses                  23684310                       # Number of tag accesses
system.l2.tags.data_accesses                 23684310                       # Number of data accesses
system.cpu_voltage_domain.voltage                   1                       # Voltage in Volts
system.mem_ctrls.pwrStateResidencyTicks::UNDEFINED 497592973000                       # Cumulative time (in ticks) in various power states
system.mem_ctrls.bytes_read::.cpu.inst          48896                       # Number of bytes read from this memory
system.mem_ctrls.bytes_read::.cpu.data      336871424                       # Number of bytes read from this memory
system.mem_ctrls.bytes_read::total          336920320                       # Number of bytes read from this memory
system.mem_ctrls.bytes_inst_read::.cpu.inst        48896                       # Number of instructions bytes read from this memory
system.mem_ctrls.bytes_inst_read::total         48896                       # Number of instructions bytes read from this memory
system.mem_ctrls.bytes_written::.writebacks    335799808                       # Number of bytes written to this memory
system.mem_ctrls.bytes_written::total       335799808                       # Number of bytes written to this memory
system.mem_ctrls.num_reads::.cpu.inst             382                       # Number of read requests responded to by this memory
system.mem_ctrls.num_reads::.cpu.data         2631808                       # Number of read requests responded to by this memory
system.mem_ctrls.num_reads::total             2632190                       # Number of read requests responded to by this memory
system.mem_ctrls.num_writes::.writebacks      2623436                       # Number of write requests responded to by this memory
system.mem_ctrls.num_writes::total            2623436                       # Number of write requests responded to by this memory
system.mem_ctrls.bw_read::.cpu.inst             98265                       # Total read bandwidth from this memory (bytes/s)
system.mem_ctrls.bw_read::.cpu.data         677001972                       # Total read bandwidth from this memory (bytes/s)
system.mem_ctrls.bw_read::total             677100237                       # Total read bandwidth from this memory (bytes/s)
system.mem_ctrls.bw_inst_read::.cpu.inst        98265                       # Instruction read bandwidth from this memory (bytes/s)
system.mem_ctrls.bw_inst_read::total            98265                       # Instruction read bandwidth from this memory (bytes/s)
system.mem_ctrls.bw_write::.writebacks      674848373                       # Write bandwidth from this memory (bytes/s)
system.mem_ctrls.bw_write::total            674848373                       # Write bandwidth from this memory (bytes/s)
system.mem_ctrls.bw_total::.writebacks      674848373                       # Total bandwidth to/from this memory (bytes/s)
system.mem_ctrls.bw_total::.cpu.inst            98265                       # Total bandwidth to/from this memory (bytes/s)
system.mem_ctrls.bw_total::.cpu.data        677001972                       # Total bandwidth to/from this memory (bytes/s)
system.mem_ctrls.bw_total::total           1351948610                       # Total bandwidth to/from this memory (bytes/s)
system.mem_ctrls.avgPriority_.writebacks::samples   5246872.00                       # Average QoS priority value for accepted requests
system.mem_ctrls.avgPriority_.cpu.inst::samples       764.00                       # Average QoS priority value for accepted requests
system.mem_ctrls.avgPriority_.cpu.data::samples   5263616.00                       # Average QoS priority value for accepted requests
system.mem_ctrls.priorityMinLatency      0.000000018750                       # per QoS priority minimum request to response latency (s)
system.mem_ctrls.priorityMaxLatency      0.000711301500                       # per QoS priority maximum request to response latency (s)
system.mem_ctrls.numReadWriteTurnArounds       291779                       # Number of turnarounds from READ to WRITE
system.mem_ctrls.numWriteReadTurnArounds       291779                       # Number of turnarounds from WRITE to READ
system.mem_ctrls.numStayReadState            10421700                       # Number of times bus staying in READ state
system.mem_ctrls.numStayWriteState            4966028                       # Number of times bus staying in WRITE state
system.mem_ctrls.readReqs                     2632190                       # Number of read requests accepted
system.mem_ctrls.writeReqs                    2623436                       # Number of write requests accepted
system.mem_ctrls.readBursts                   5264380                       # Number of DRAM read bursts, including those serviced by the write queue
system.mem_ctrls.writeBursts                  5246872                       # Number of DRAM write bursts, including those merged in the write queue
system.mem_ctrls.servicedByWrQ                      0                       # Number of DRAM read bursts serviced by the write queue
system.mem_ctrls.mergedWrBursts                     0                       # Number of DRAM write bursts merged with an existing one
system.mem_ctrls.neitherReadNorWriteReqs            0                       # Number of requests that are neither read nor write
system.mem_ctrls.perBankRdBursts::0            329080                       # Per bank write bursts
system.mem_ctrls.perBankRdBursts::1            329100                       # Per bank write bursts
system.mem_ctrls.perBankRdBursts::2            329140                       # Per bank write bursts
system.mem_ctrls.perBankRdBursts::3            329100                       # Per bank write bursts
system.mem_ctrls.perBankRdBursts::4            329036                       # Per bank write bursts
system.mem_ctrls.perBankRdBursts::5            329094                       # Per bank write bursts
system.mem_ctrls.perBankRdBursts::6            329110                       # Per bank write bursts
system.mem_ctrls.perBankRdBursts::7            328954                       # Per bank write bursts
system.mem_ctrls.perBankRdBursts::8            328912                       # Per bank write bursts
system.mem_ctrls.perBankRdBursts::9            328886                       # Per bank write bursts
system.mem_ctrls.perBankRdBursts::10           328858                       # Per bank write bursts
system.mem_ctrls.perBankRdBursts::11           329064                       # Per bank write bursts
system.mem_ctrls.perBankRdBursts::12           329056                       # Per bank write bursts
system.mem_ctrls.perBankRdBursts::13           329054                       # Per bank write bursts
system.mem_ctrls.perBankRdBursts::14           329038                       # Per bank write bursts
system.mem_ctrls.perBankRdBursts::15           328898                       # Per bank write bursts
system.mem_ctrls.perBankWrBursts::0            327894                       # Per bank write bursts
system.mem_ctrls.perBankWrBursts::1            327967                       # Per bank write bursts
system.mem_ctrls.perBankWrBursts::2            328058                       # Per bank write bursts
system.mem_ctrls.perBankWrBursts::3            328034                       # Per bank write bursts
system.mem_ctrls.perBankWrBursts::4            328002                       # Per bank write bursts
system.mem_ctrls.perBankWrBursts::5            328010                       # Per bank write bursts
system.mem_ctrls.perBankWrBursts::6            328022                       # Per bank write bursts
system.mem_ctrls.perBankWrBursts::7            327904                       # Per bank write bursts
system.mem_ctrls.perBankWrBursts::8            327808                       # Per bank write bursts
system.mem_ctrls.perBankWrBursts::9            327808                       # Per bank write bursts
system.mem_ctrls.perBankWrBursts::10           327740                       # Per bank write bursts
system.mem_ctrls.perBankWrBursts::11           327968                       # Per bank write bursts
system.mem_ctrls.perBankWrBursts::12           327966                       # Per bank write bursts
system.mem_ctrls.perBankWrBursts::13           327948                       # Per bank write bursts
system.mem_ctrls.perBankWrBursts::14           327890                       # Per bank write bursts
system.mem_ctrls.perBankWrBursts::15           327834                       # Per bank write bursts
system.mem_ctrls.avgRdQLen                       2.00                       # Average read queue length when enqueuing
system.mem_ctrls.avgWrQLen                      25.27                       # Average write queue length when enqueuing
system.mem_ctrls.totQLat                 112161490500                       # Total ticks spent queuing
system.mem_ctrls.totBusLat                26321900000                       # Total ticks spent in databus transfers
system.mem_ctrls.totMemAccLat            210868615500                       # Total ticks spent from burst creation until serviced by the DRAM
system.mem_ctrls.avgQLat                     21305.74                       # Average queueing delay per DRAM burst
system.mem_ctrls.avgBusLat                    5000.00                       # Average bus latency per DRAM burst
system.mem_ctrls.avgMemAccLat                40055.74                       # Average memory access latency per DRAM burst
system.mem_ctrls.numRdRetry                         0                       # Number of times read queue was full causing retry
system.mem_ctrls.numWrRetry                         0                       # Number of times write queue was full causing retry
system.mem_ctrls.readRowHits                  4674254                       # Number of row buffer hits during reads
system.mem_ctrls.writeRowHits                 4662540                       # Number of row buffer hits during writes
system.mem_ctrls.readRowHitRate                 88.79                       # Row buffer hit rate for reads
system.mem_ctrls.writeRowHitRate                88.86                       # Row buffer hit rate for writes
system.mem_ctrls.readPktSize::0                     0                       # Read request sizes (log2)
system.mem_ctrls.readPktSize::1                     0                       # Read request sizes (log2)
system.mem_ctrls.readPktSize::2                     0                       # Read request sizes (log2)
system.mem_ctrls.readPktSize::3                     0                       # Read request sizes (log2)
system.mem_ctrls.readPktSize::4                     0                       # Read request sizes (log2)
system.mem_ctrls.readPktSize::5                     0                       # Read request sizes (log2)
system.mem_ctrls.readPktSize::6               5264380                       # Read request sizes (log2)
system.mem_ctrls.writePktSize::0                    0                       # Write request sizes (log2)
system.mem_ctrls.writePktSize::1                    0                       # Write request sizes (log2)
system.mem_ctrls.writePktSize::2                    0                       # Write request sizes (log2)
system.mem_ctrls.writePktSize::3                    0                       # Write request sizes (log2)
system.mem_ctrls.writePktSize::4                    0                       # Write request sizes (log2)
system.mem_ctrls.writePktSize::5                    0                       # Write request sizes (log2)
system.mem_ctrls.writePktSize::6              5246872                       # Write request sizes (log2)
system.mem_ctrls.rdQLenPdf::0                 2632001                       # What read queue length does an incoming req see
system.mem_ctrls.rdQLenPdf::1                 2632004                       # What read queue length does an incoming req see
system.mem_ctrls.rdQLenPdf::2                     178                       # What read queue length does an incoming req see
system.mem_ctrls.rdQLenPdf::3                     178                       # What read queue length does an incoming req see
system.mem_ctrls.rdQLenPdf::4                      11                       # What read queue length does an incoming req see
system.mem_ctrls.rdQLenPdf::5                       8                       # What read queue length does an incoming req see
system.mem_ctrls.rdQLenPdf::6                       0                       # What read queue length does an incoming req see
system.mem_ctrls.rdQLenPdf::7                       0                       # What read queue length does an incoming req see
system.mem_ctrls.rdQLenPdf::8                       0                       # What read queue length does an incoming req see
system.mem_ctrls.rdQLenPdf::9                       0                       # What read queue length does an incoming req see
system.mem_ctrls.rdQLenPdf::10                      0                       # What read queue length does an incoming req see
system.mem_ctrls.rdQLenPdf::11                      0                       # What read queue length does an incoming req see
system.mem_ctrls.rdQLenPdf::12                      0                       # What read queue length does an incoming req see
system.mem_ctrls.rdQLenPdf::13                      0                       # What read queue length does an incoming req see
system.mem_ctrls.rdQLenPdf::14                      0                       # What read queue length does an incoming req see
system.mem_ctrls.rdQLenPdf::15                      0                       # What read queue length does an incoming req see
system.mem_ctrls.rdQLenPdf::16                      0                       # What read queue length does an incoming req see
system.mem_ctrls.rdQLenPdf::17                      0                       # What read queue length does an incoming req see
system.mem_ctrls.rdQLenPdf::18                      0                       # What read queue length does an incoming req see
system.mem_ctrls.rdQLenPdf::19                      0                       # What read queue length does an incoming req see
system.mem_ctrls.rdQLenPdf::20                      0                       # What read queue length does an incoming req see
system.mem_ctrls.rdQLenPdf::21                      0                       # What read queue length does an incoming req see
system.mem_ctrls.rdQLenPdf::22                      0                       # What read queue length does an incoming req see
system.mem_ctrls.rdQLenPdf::23                      0                       # What read queue length does an incoming req see
system.mem_ctrls.rdQLenPdf::24                      0                       # What read queue length does an incoming req see
system.mem_ctrls.rdQLenPdf::25                      0                       # What read queue length does an incoming req see
system.mem_ctrls.rdQLenPdf::26                      0                       # What read queue length does an incoming req see
system.mem_ctrls.rdQLenPdf::27                      0                       # What read queue length does an incoming req see
system.mem_ctrls.rdQLenPdf::28                      0                       # What read queue length does an incoming req see
system.mem_ctrls.rdQLenPdf::29                      0                       # What read queue length does an incoming req see
system.mem_ctrls.rdQLenPdf::30                      0                       # What read queue length does an incoming req see
system.mem_ctrls.rdQLenPdf::31                      0                       # What read queue length does an incoming req see
system.mem_ctrls.wrQLenPdf::0                       1                       # What write queue length does an incoming req see
system.mem_ctrls.wrQLenPdf::1                       1                       # What write queue length does an incoming req see
system.mem_ctrls.wrQLenPdf::2                       1                       # What write queue length does an incoming req see
system.mem_ctrls.wrQLenPdf::3                       1                       # What write queue length does an incoming req see
system.mem_ctrls.wrQLenPdf::4                       1                       # What write queue length does an incoming req see
system.mem_ctrls.wrQLenPdf::5                       1                       # What write queue length does an incoming req see
system.mem_ctrls.wrQLenPdf::6                       1                       # What write queue length does an incoming req see
system.mem_ctrls.wrQLenPdf::7                       1                       # What write queue length does an incoming req see
system.mem_ctrls.wrQLenPdf::8                       1                       # What write queue length does an incoming req see
system.mem_ctrls.wrQLenPdf::9                       1                       # What write queue length does an incoming req see
system.mem_ctrls.wrQLenPdf::10                      1                       # What write queue length does an incoming req see
system.mem_ctrls.wrQLenPdf::11                      1                       # What write queue length does an incoming req see
system.mem_ctrls.wrQLenPdf::12                      1                       # What write queue length does an incoming req see
system.mem_ctrls.wrQLenPdf::13                      1                       # What write queue length does an incoming req see
system.mem_ctrls.wrQLenPdf::14                      1                       # What write queue length does an incoming req see
system.mem_ctrls.wrQLenPdf::15                 288211                       # What write queue length does an incoming req see
system.mem_ctrls.wrQLenPdf::16                 288302                       # What write queue length does an incoming req see
system.mem_ctrls.wrQLenPdf::17                 292065                       # What write queue length does an incoming req see
system.mem_ctrls.wrQLenPdf::18                 292073                       # What write queue length does an incoming req see
system.mem_ctrls.wrQLenPdf::19                 291779                       # What write queue length does an incoming req see
system.mem_ctrls.wrQLenPdf::20                 291779                       # What write queue length does an incoming req see
system.mem_ctrls.wrQLenPdf::21                 291782                       # What write queue length does an incoming req see
system.mem_ctrls.wrQLenPdf::22                 292373                       # What write queue length does an incoming req see
system.mem_ctrls.wrQLenPdf::23                 292371                       # What write queue length does an incoming req see
system.mem_ctrls.wrQLenPdf::24                 291781                       # What write queue length does an incoming req see
system.mem_ctrls.wrQLenPdf::25                 291781                       # What write queue length does an incoming req see
system.mem_ctrls.wrQLenPdf::26                 291780                       # What write queue length does an incoming req see
system.mem_ctrls.wrQLenPdf::27                 291779                       # What write queue length does an incoming req see
system.mem_ctrls.wrQLenPdf::28                 291780                       # What write queue length does an incoming req see
system.mem_ctrls.wrQLenPdf::29                 291780                       # What write queue length does an incoming req see
system.mem_ctrls.wrQLenPdf::30                 291781                       # What write queue length does an incoming req see
system.mem_ctrls.wrQLenPdf::31                 291781                       # What write queue length does an incoming req see
system.mem_ctrls.wrQLenPdf::32                 291779                       # What write queue length does an incoming req see
system.mem_ctrls.wrQLenPdf::33                    100                       # What write queue length does an incoming req see
system.mem_ctrls.wrQLenPdf::34                      0                       # What write queue length does an incoming req see
system.mem_ctrls.wrQLenPdf::35                      0                       # What write queue length does an incoming req see
system.mem_ctrls.wrQLenPdf::36                      0                       # What write queue length does an incoming req see
system.mem_ctrls.wrQLenPdf::37                      0                       # What write queue length does an incoming req see
system.mem_ctrls.wrQLenPdf::38                      0                       # What write queue length does an incoming req see
system.mem_ctrls.wrQLenPdf::39                      0                       # What write queue length does an incoming req see
system.mem_ctrls.wrQLenPdf::40                      0                       # What write queue length does an incoming req see
system.mem_ctrls.wrQLenPdf::41                      0                       # What write queue length does an incoming req see
system.mem_ctrls.wrQLenPdf::42                      0                       # What write queue length does an incoming req see
system.mem_ctrls.wrQLenPdf::43                      0                       # What write queue length does an incoming req see
system.mem_ctrls.wrQLenPdf::44                      0                       # What write queue length does an incoming req see
system.mem_ctrls.wrQLenPdf::45                      0                       # What write queue length does an incoming req see
system.mem_ctrls.wrQLenPdf::46                      0                       # What write queue length does an incoming req see
system.mem_ctrls.wrQLenPdf::47                      0                       # What write queue length does an incoming req see
system.mem_ctrls.wrQLenPdf::48                      0                       # What write queue length does an incoming req see
system.mem_ctrls.wrQLenPdf::49                      0                       # What write queue length does an incoming req see
system.mem_ctrls.wrQLenPdf::50                      0                       # What write queue length does an incoming req see
system.mem_ctrls.wrQLenPdf::51                      0                       # What write queue length does an incoming req see
system.mem_ctrls.wrQLenPdf::52                      0                       # What write queue length does an incoming req see
system.mem_ctrls.wrQLenPdf::53                      0                       # What write queue length does an incoming req see
system.mem_ctrls.wrQLenPdf::54                      0                       # What write queue length does an incoming req see
system.mem_ctrls.wrQLenPdf::55                      0                       # What write queue length does an incoming req see
system.mem_ctrls.wrQLenPdf::56                      0                       # What write queue length does an incoming req see
system.mem_ctrls.wrQLenPdf::57                      0                       # What write queue length does an incoming req see
system.mem_ctrls.wrQLenPdf::58                      0                       # What write queue length does an incoming req see
system.mem_ctrls.wrQLenPdf::59                      0                       # What write queue length does an incoming req see
system.mem_ctrls.wrQLenPdf::60                      0                       # What write queue length does an incoming req see
system.mem_ctrls.wrQLenPdf::61                      0                       # What write queue length does an incoming req see
system.mem_ctrls.wrQLenPdf::62                      0                       # What write queue length does an incoming req see
system.mem_ctrls.wrQLenPdf::63                      0                       # What write queue length does an incoming req see
system.mem_ctrls.bytesPerActivate::samples      1174438                       # Bytes accessed per row activation
system.mem_ctrls.bytesPerActivate::mean    572.800485                       # Bytes accessed per row activation
system.mem_ctrls.bytesPerActivate::gmean   380.606190                       # Bytes accessed per row activation
system.mem_ctrls.bytesPerActivate::stdev   419.567514                       # Bytes accessed per row activation
system.mem_ctrls.bytesPerActivate::0-127        17330      1.48%      1.48% # Bytes accessed per row activation
system.mem_ctrls.bytesPerActivate::128-255       476604     40.58%     42.06% # Bytes accessed per row activation
system.mem_ctrls.bytesPerActivate::256-383        39465      3.36%     45.42% # Bytes accessed per row activation
system.mem_ctrls.bytesPerActivate::384-511        33502      2.85%     48.27% # Bytes accessed per row activation
system.mem_ctrls.bytesPerActivate::512-639        29124      2.48%     50.75% # Bytes accessed per row activation
system.mem_ctrls.bytesPerActivate::640-767        29469      2.51%     53.26% # Bytes accessed per row activation
system.mem_ctrls.bytesPerActivate::768-895        34111      2.90%     56.16% # Bytes accessed per row activation
system.mem_ctrls.bytesPerActivate::896-1023        32627      2.78%     58.94% # Bytes accessed per row activation
system.mem_ctrls.bytesPerActivate::1024-1151       482206     41.06%    100.00% # Bytes accessed per row activation
system.mem_ctrls.bytesPerActivate::total      1174438                       # Bytes accessed per row activation
system.mem_ctrls.rdPerTurnAround::samples       291779                       # Reads before turning the bus around for writes
system.mem_ctrls.rdPerTurnAround::mean      18.042340                       # Reads before turning the bus around for writes
system.mem_ctrls.rdPerTurnAround::gmean     17.983416                       # Reads before turning the bus around for writes
system.mem_ctrls.rdPerTurnAround::stdev     23.102912                       # Reads before turning the bus around for writes
system.mem_ctrls.rdPerTurnAround::0-511        291776    100.00%    100.00% # Reads before turning the bus around for writes
system.mem_ctrls.rdPerTurnAround::512-1023            1      0.00%    100.00% # Reads before turning the bus around for writes
system.mem_ctrls.rdPerTurnAround::1024-1535            1      0.00%    100.00% # Reads before turning the bus around for writes
system.mem_ctrls.rdPerTurnAround::12288-12799            1      0.00%    100.00% # Reads before turning the bus around for writes
system.mem_ctrls.rdPerTurnAround::total        291779                       # Reads before turning the bus around for writes
system.mem_ctrls.wrPerTurnAround::samples       291779                       # Writes before turning the bus around for reads
system.mem_ctrls.wrPerTurnAround::mean      17.982285                       # Writes before turning the bus around for reads
system.mem_ctrls.wrPerTurnAround::gmean     17.980541                       # Writes before turning the bus around for reads
system.mem_ctrls.wrPerTurnAround::stdev      0.244604                       # Writes before turning the bus around for reads
system.mem_ctrls.wrPerTurnAround::16             3478      1.19%      1.19% # Writes before turning the bus around for reads
system.mem_ctrls.wrPerTurnAround::17               28      0.01%      1.20% # Writes before turning the bus around for reads
system.mem_ctrls.wrPerTurnAround::18           287352     98.48%     99.68% # Writes before turning the bus around for reads
system.mem_ctrls.wrPerTurnAround::19               29      0.01%     99.69% # Writes before turning the bus around for reads
[...]
system.cpu.icache.ReadReq_miss_rate::total     0.000013                       # miss rate for ReadReq accesses
system.cpu.icache.ReadReq_avg_miss_latency::.cpu.inst 109947.368421                       # average ReadReq miss latency
system.cpu.icache.ReadReq_avg_miss_latency::total 109947.368421                       # average ReadReq miss latency
system.cpu.icache.ReadReq_mshr_misses::.cpu.inst          399                       # number of ReadReq MSHR misses
system.cpu.icache.ReadReq_mshr_misses::total          399                       # number of ReadReq MSHR misses
system.cpu.icache.ReadReq_mshr_miss_latency::.cpu.inst     43071000                       # number of ReadReq MSHR miss cycles
system.cpu.icache.ReadReq_mshr_miss_latency::total     43071000                       # number of ReadReq MSHR miss cycles
system.cpu.icache.ReadReq_mshr_miss_rate::.cpu.inst     0.000013                       # mshr miss rate for ReadReq accesses
system.cpu.icache.ReadReq_mshr_miss_rate::total     0.000013                       # mshr miss rate for ReadReq accesses
system.cpu.icache.ReadReq_avg_mshr_miss_latency::.cpu.inst 107947.368421                       # average ReadReq mshr miss latency
system.cpu.icache.ReadReq_avg_mshr_miss_latency::total 107947.368421                       # average ReadReq mshr miss latency
system.cpu.icache.tags.pwrStateResidencyTicks::UNDEFINED 497592973000                       # Cumulative time (in ticks) in various power states
system.cpu.icache.tags.tagsinuse           338.590847                       # Cycle average of tags in use
system.cpu.icache.tags.total_refs            31780388                       # Total number of references to valid blocks.
system.cpu.icache.tags.sampled_refs               399                       # Sample count of references to valid blocks.
system.cpu.icache.tags.avg_refs          79650.095238                       # Average number of references to valid blocks.
system.cpu.icache.tags.warmup_cycle            113000                       # Cycle when the warmup percentage was hit.
system.cpu.icache.tags.occ_blocks::.cpu.inst   338.590847                       # Average occupied blocks per requestor
system.cpu.icache.tags.occ_percent::.cpu.inst     0.330655                       # Average percentage of cache occupancy
system.cpu.icache.tags.occ_percent::total     0.330655                       # Average percentage of cache occupancy
system.cpu.icache.tags.occ_task_id_blocks::1024          399                       # Occupied blocks per task id
system.cpu.icache.tags.age_task_id_blocks_1024::4          399                       # Occupied blocks per task id
system.cpu.icache.tags.occ_task_id_percent::1024     0.389648                       # Percentage of cache occupancy per task id
system.cpu.icache.tags.tag_accesses         127121951                       # Number of tag accesses
system.cpu.icache.tags.data_accesses        127121951                       # Number of data accesses
system.cpu.dtb.walker.pwrStateResidencyTicks::UNDEFINED 497592973000                       # Cumulative time (in ticks) in various power states
system.cpu.dtb.stage2_mmu.stage2_tlb.walker.pwrStateResidencyTicks::UNDEFINED 497592973000                       # Cumulative time (in ticks) in various power states
system.cpu.dcache.pwrStateResidencyTicks::UNDEFINED 497592973000                       # Cumulative time (in ticks) in various power states
system.cpu.dcache.demand_hits::.cpu.data     81118621                       # number of demand (read+write) hits
system.cpu.dcache.demand_hits::total         81118621                       # number of demand (read+write) hits
system.cpu.dcache.overall_hits::.cpu.data     81118663                       # number of overall hits
system.cpu.dcache.overall_hits::total        81118663                       # number of overall hits
system.cpu.dcache.demand_misses::.cpu.data      5262086                       # number of demand (read+write) misses
system.cpu.dcache.demand_misses::total        5262086                       # number of demand (read+write) misses
system.cpu.dcache.overall_misses::.cpu.data      5262115                       # number of overall misses
system.cpu.dcache.overall_misses::total       5262115                       # number of overall misses
system.cpu.dcache.demand_miss_latency::.cpu.data 633694412000                       # number of demand (read+write) miss cycles
system.cpu.dcache.demand_miss_latency::total 633694412000                       # number of demand (read+write) miss cycles
system.cpu.dcache.overall_miss_latency::.cpu.data 633694412000                       # number of overall miss cycles
system.cpu.dcache.overall_miss_latency::total 633694412000                       # number of overall miss cycles
system.cpu.dcache.demand_accesses::.cpu.data     86380707                       # number of demand (read+write) accesses
system.cpu.dcache.demand_accesses::total     86380707                       # number of demand (read+write) accesses
system.cpu.dcache.overall_accesses::.cpu.data     86380778                       # number of overall (read+write) accesses
system.cpu.dcache.overall_accesses::total     86380778                       # number of overall (read+write) accesses
system.cpu.dcache.demand_miss_rate::.cpu.data     0.060917                       # miss rate for demand accesses
system.cpu.dcache.demand_miss_rate::total     0.060917                       # miss rate for demand accesses
system.cpu.dcache.overall_miss_rate::.cpu.data     0.060918                       # miss rate for overall accesses
system.cpu.dcache.overall_miss_rate::total     0.060918                       # miss rate for overall accesses
system.cpu.dcache.demand_avg_miss_latency::.cpu.data 120426.464334                       # average overall miss latency
system.cpu.dcache.demand_avg_miss_latency::total 120426.464334                       # average overall miss latency
system.cpu.dcache.overall_avg_miss_latency::.cpu.data 120425.800652                       # average overall miss latency
system.cpu.dcache.overall_avg_miss_latency::total 120425.800652                       # average overall miss latency
system.cpu.dcache.blocked_cycles::no_mshrs            0                       # number of cycles access was blocked
system.cpu.dcache.blocked_cycles::no_targets            0                       # number of cycles access was blocked
system.cpu.dcache.blocked::no_mshrs                 0                       # number of cycles access was blocked
system.cpu.dcache.blocked::no_targets               0                       # number of cycles access was blocked
system.cpu.dcache.avg_blocked_cycles::no_mshrs          nan                       # average number of cycles each access was blocked
system.cpu.dcache.avg_blocked_cycles::no_targets          nan                       # average number of cycles each access was blocked
system.cpu.dcache.writebacks::.writebacks      2630620                       # number of writebacks
system.cpu.dcache.writebacks::total           2630620                       # number of writebacks
system.cpu.dcache.demand_mshr_hits::.cpu.data      2630246                       # number of demand (read+write) MSHR hits
system.cpu.dcache.demand_mshr_hits::total      2630246                       # number of demand (read+write) MSHR hits
system.cpu.dcache.overall_mshr_hits::.cpu.data      2630246                       # number of overall MSHR hits
system.cpu.dcache.overall_mshr_hits::total      2630246                       # number of overall MSHR hits
system.cpu.dcache.demand_mshr_misses::.cpu.data      2631840                       # number of demand (read+write) MSHR misses
system.cpu.dcache.demand_mshr_misses::total      2631840                       # number of demand (read+write) MSHR misses
system.cpu.dcache.overall_mshr_misses::.cpu.data      2631858                       # number of overall MSHR misses
system.cpu.dcache.overall_mshr_misses::total      2631858                       # number of overall MSHR misses
system.cpu.dcache.demand_mshr_miss_latency::.cpu.data 307735219000                       # number of demand (read+write) MSHR miss cycles
system.cpu.dcache.demand_mshr_miss_latency::total 307735219000                       # number of demand (read+write) MSHR miss cycles
system.cpu.dcache.overall_mshr_miss_latency::.cpu.data 307737162000                       # number of overall MSHR miss cycles
system.cpu.dcache.overall_mshr_miss_latency::total 307737162000                       # number of overall MSHR miss cycles
system.cpu.dcache.demand_mshr_miss_rate::.cpu.data     0.030468                       # mshr miss rate for demand accesses
system.cpu.dcache.demand_mshr_miss_rate::total     0.030468                       # mshr miss rate for demand accesses
system.cpu.dcache.overall_mshr_miss_rate::.cpu.data     0.030468                       # mshr miss rate for overall accesses
system.cpu.dcache.overall_mshr_miss_rate::total     0.030468                       # mshr miss rate for overall accesses
system.cpu.dcache.demand_avg_mshr_miss_latency::.cpu.data 116927.783984                       # average overall mshr miss latency
system.cpu.dcache.demand_avg_mshr_miss_latency::total 116927.783984                       # average overall mshr miss latency
system.cpu.dcache.overall_avg_mshr_miss_latency::.cpu.data 116927.722544                       # average overall mshr miss latency
system.cpu.dcache.overall_avg_mshr_miss_latency::total 116927.722544                       # average overall mshr miss latency
system.cpu.dcache.replacements                2630834                       # number of replacements
system.cpu.dcache.ReadReq_hits::.cpu.data      2043865                       # number of ReadReq hits
system.cpu.dcache.ReadReq_hits::total         2043865                       # number of ReadReq hits
system.cpu.dcache.ReadReq_misses::.cpu.data          249                       # number of ReadReq misses
system.cpu.dcache.ReadReq_misses::total           249                       # number of ReadReq misses
system.cpu.dcache.ReadReq_miss_latency::.cpu.data     25656000                       # number of ReadReq miss cycles
system.cpu.dcache.ReadReq_miss_latency::total     25656000                       # number of ReadReq miss cycles
system.cpu.dcache.ReadReq_accesses::.cpu.data      2044114                       # number of ReadReq accesses(hits+misses)
system.cpu.dcache.ReadReq_accesses::total      2044114                       # number of ReadReq accesses(hits+misses)
system.cpu.dcache.ReadReq_miss_rate::.cpu.data     0.000122                       # miss rate for ReadReq accesses
system.cpu.dcache.ReadReq_miss_rate::total     0.000122                       # miss rate for ReadReq accesses
system.cpu.dcache.ReadReq_avg_miss_latency::.cpu.data 103036.144578                       # average ReadReq miss latency
system.cpu.dcache.ReadReq_avg_miss_latency::total 103036.144578                       # average ReadReq miss latency
system.cpu.dcache.ReadReq_mshr_hits::.cpu.data           22                       # number of ReadReq MSHR hits
system.cpu.dcache.ReadReq_mshr_hits::total           22                       # number of ReadReq MSHR hits
system.cpu.dcache.ReadReq_mshr_misses::.cpu.data          227                       # number of ReadReq MSHR misses
system.cpu.dcache.ReadReq_mshr_misses::total          227                       # number of ReadReq MSHR misses
system.cpu.dcache.ReadReq_mshr_miss_latency::.cpu.data     23238000                       # number of ReadReq MSHR miss cycles
system.cpu.dcache.ReadReq_mshr_miss_latency::total     23238000                       # number of ReadReq MSHR miss cycles
system.cpu.dcache.ReadReq_mshr_miss_rate::.cpu.data     0.000111                       # mshr miss rate for ReadReq accesses
system.cpu.dcache.ReadReq_mshr_miss_rate::total     0.000111                       # mshr miss rate for ReadReq accesses
system.cpu.dcache.ReadReq_avg_mshr_miss_latency::.cpu.data 102370.044053                       # average ReadReq mshr miss latency
system.cpu.dcache.ReadReq_avg_mshr_miss_latency::total 102370.044053                       # average ReadReq mshr miss latency
system.cpu.dcache.WriteReq_hits::.cpu.data     79074756                       # number of WriteReq hits
system.cpu.dcache.WriteReq_hits::total       79074756                       # number of WriteReq hits
system.cpu.dcache.WriteReq_misses::.cpu.data      5261837                       # number of WriteReq misses
system.cpu.dcache.WriteReq_misses::total      5261837                       # number of WriteReq misses
system.cpu.dcache.WriteReq_miss_latency::.cpu.data 633668756000                       # number of WriteReq miss cycles
system.cpu.dcache.WriteReq_miss_latency::total 633668756000                       # number of WriteReq miss cycles
system.cpu.dcache.WriteReq_accesses::.cpu.data     84336593                       # number of WriteReq accesses(hits+misses)
system.cpu.dcache.WriteReq_accesses::total     84336593                       # number of WriteReq accesses(hits+misses)
system.cpu.dcache.WriteReq_miss_rate::.cpu.data     0.062391                       # miss rate for WriteReq accesses
system.cpu.dcache.WriteReq_miss_rate::total     0.062391                       # miss rate for WriteReq accesses
system.cpu.dcache.WriteReq_avg_miss_latency::.cpu.data 120427.287276                       # average WriteReq miss latency
system.cpu.dcache.WriteReq_avg_miss_latency::total 120427.287276                       # average WriteReq miss latency
system.cpu.dcache.WriteReq_mshr_hits::.cpu.data      2630224                       # number of WriteReq MSHR hits
system.cpu.dcache.WriteReq_mshr_hits::total      2630224                       # number of WriteReq MSHR hits
system.cpu.dcache.WriteReq_mshr_misses::.cpu.data      2631613                       # number of WriteReq MSHR misses
system.cpu.dcache.WriteReq_mshr_misses::total      2631613                       # number of WriteReq MSHR misses
system.cpu.dcache.WriteReq_mshr_miss_latency::.cpu.data 307711981000                       # number of WriteReq MSHR miss cycles
system.cpu.dcache.WriteReq_mshr_miss_latency::total 307711981000                       # number of WriteReq MSHR miss cycles
system.cpu.dcache.WriteReq_mshr_miss_rate::.cpu.data     0.031204                       # mshr miss rate for WriteReq accesses
system.cpu.dcache.WriteReq_mshr_miss_rate::total     0.031204                       # mshr miss rate for WriteReq accesses
system.cpu.dcache.WriteReq_avg_mshr_miss_latency::.cpu.data 116929.039718                       # average WriteReq mshr miss latency
system.cpu.dcache.WriteReq_avg_mshr_miss_latency::total 116929.039718                       # average WriteReq mshr miss latency
system.cpu.dcache.SoftPFReq_hits::.cpu.data           42                       # number of SoftPFReq hits
system.cpu.dcache.SoftPFReq_hits::total            42                       # number of SoftPFReq hits
system.cpu.dcache.SoftPFReq_misses::.cpu.data           29                       # number of SoftPFReq misses
system.cpu.dcache.SoftPFReq_misses::total           29                       # number of SoftPFReq misses
system.cpu.dcache.SoftPFReq_accesses::.cpu.data           71                       # number of SoftPFReq accesses(hits+misses)
system.cpu.dcache.SoftPFReq_accesses::total           71                       # number of SoftPFReq accesses(hits+misses)
system.cpu.dcache.SoftPFReq_miss_rate::.cpu.data     0.408451                       # miss rate for SoftPFReq accesses
system.cpu.dcache.SoftPFReq_miss_rate::total     0.408451                       # miss rate for SoftPFReq accesses
system.cpu.dcache.SoftPFReq_mshr_misses::.cpu.data           18                       # number of SoftPFReq MSHR misses
system.cpu.dcache.SoftPFReq_mshr_misses::total           18                       # number of SoftPFReq MSHR misses
system.cpu.dcache.SoftPFReq_mshr_miss_latency::.cpu.data      1943000                       # number of SoftPFReq MSHR miss cycles
system.cpu.dcache.SoftPFReq_mshr_miss_latency::total      1943000                       # number of SoftPFReq MSHR miss cycles
system.cpu.dcache.SoftPFReq_mshr_miss_rate::.cpu.data     0.253521                       # mshr miss rate for SoftPFReq accesses
system.cpu.dcache.SoftPFReq_mshr_miss_rate::total     0.253521                       # mshr miss rate for SoftPFReq accesses
system.cpu.dcache.SoftPFReq_avg_mshr_miss_latency::.cpu.data 107944.444444                       # average SoftPFReq mshr miss latency
system.cpu.dcache.SoftPFReq_avg_mshr_miss_latency::total 107944.444444                       # average SoftPFReq mshr miss latency
system.cpu.dcache.LoadLockedReq_hits::.cpu.data           34                       # number of LoadLockedReq hits
system.cpu.dcache.LoadLockedReq_hits::total           34                       # number of LoadLockedReq hits
system.cpu.dcache.LoadLockedReq_accesses::.cpu.data           34                       # number of LoadLockedReq accesses(hits+misses)
system.cpu.dcache.LoadLockedReq_accesses::total           34                       # number of LoadLockedReq accesses(hits+misses)
system.cpu.dcache.StoreCondReq_hits::.cpu.data           34                       # number of StoreCondReq hits
system.cpu.dcache.StoreCondReq_hits::total           34                       # number of StoreCondReq hits
system.cpu.dcache.StoreCondReq_accesses::.cpu.data           34                       # number of StoreCondReq accesses(hits+misses)
system.cpu.dcache.StoreCondReq_accesses::total           34                       # number of StoreCondReq accesses(hits+misses)
system.cpu.dcache.tags.pwrStateResidencyTicks::UNDEFINED 497592973000                       # Cumulative time (in ticks) in various power states
system.cpu.dcache.tags.tagsinuse          1022.057443                       # Cycle average of tags in use
system.cpu.dcache.tags.total_refs            83750589                       # Total number of references to valid blocks.
system.cpu.dcache.tags.sampled_refs           2631858                       # Sample count of references to valid blocks.
system.cpu.dcache.tags.avg_refs             31.821849                       # Average number of references to valid blocks.
system.cpu.dcache.tags.warmup_cycle            233000                       # Cycle when the warmup percentage was hit.
system.cpu.dcache.tags.occ_blocks::.cpu.data  1022.057443                       # Average occupied blocks per requestor
system.cpu.dcache.tags.occ_percent::.cpu.data     0.998103                       # Average percentage of cache occupancy
system.cpu.dcache.tags.occ_percent::total     0.998103                       # Average percentage of cache occupancy
system.cpu.dcache.tags.occ_task_id_blocks::1024         1024                       # Occupied blocks per task id
system.cpu.dcache.tags.age_task_id_blocks_1024::0           54                       # Occupied blocks per task id
system.cpu.dcache.tags.age_task_id_blocks_1024::1          478                       # Occupied blocks per task id
system.cpu.dcache.tags.age_task_id_blocks_1024::2          492                       # Occupied blocks per task id
system.cpu.dcache.tags.occ_task_id_percent::1024            1                       # Percentage of cache occupancy per task id
system.cpu.dcache.tags.tag_accesses         348155242                       # Number of tag accesses
system.cpu.dcache.tags.data_accesses        348155242                       # Number of data accesses
system.cpu.itb.walker.pwrStateResidencyTicks::UNDEFINED 497592973000                       # Cumulative time (in ticks) in various power states
system.cpu.itb.stage2_mmu.stage2_tlb.walker.pwrStateResidencyTicks::UNDEFINED 497592973000                       # Cumulative time (in ticks) in various power states

---------- End Simulation Statistics   ----------
