
---------- Begin Simulation Statistics ----------
final_tick                               286828040500                       # Number of ticks from beginning of simulation (restored from checkpoints and never reset)
host_inst_rate                                 218330                       # Simulator instruction rate (inst/s)
host_mem_usage                                 698888                       # Number of bytes of host memory used
host_op_rate                                   402118                       # Simulator op (including micro ops) rate (op/s)
host_seconds                                   458.02                       # Real time elapsed on the host
host_tick_rate                              626230575                       # Simulator tick rate (ticks/s)
sim_freq                                 1000000000000                       # Frequency of simulated ticks
sim_insts                                   100000001                       # Number of instructions simulated
sim_ops                                     184179363                       # Number of ops (including micro ops) simulated
sim_seconds                                  0.286828                       # Number of seconds simulated
sim_ticks                                286828040500                       # Number of ticks simulated
system.cpu.branchPred.BTBCorrect                    0                       # Number of correct BTB predictions (this stat may not work properly.
system.cpu.branchPred.BTBHitPct             99.958451                       # BTB Hit Percentage
system.cpu.branchPred.BTBHits                10561378                       # Number of BTB hits
system.cpu.branchPred.BTBLookups             10565768                       # Number of BTB lookups
system.cpu.branchPred.RASInCorrect                  6                       # Number of incorrect RAS predictions.
system.cpu.branchPred.condIncorrect              1366                       # Number of conditional branches incorrect
system.cpu.branchPred.condPredicted          10562276                       # Number of conditional branches predicted
system.cpu.branchPred.indirectHits                 16                       # Number of indirect target hits.
system.cpu.branchPred.indirectLookups             150                       # Number of indirect predictor lookups.
system.cpu.branchPred.indirectMisses              134                       # Number of indirect misses.
system.cpu.branchPred.lookups                10570314                       # Number of BP lookups
system.cpu.branchPred.usedRAS                    2671                       # Number of times the RAS was used to get a target.
system.cpu.branchPredindirectMispredicted           89                       # Number of mispredicted indirect branches.
system.cpu.committedInsts                   100000001                       # Number of instructions committed
system.cpu.committedOps                     184179363                       # Number of ops (including micro ops) committed
system.cpu.cpi                               5.736561                       # CPI: cycles per instruction
system.cpu.discardedOps                          3934                       # Number of ops (including micro ops) which were discarded before commit
system.cpu.dtb.accesses                             0                       # DTB accesses
system.cpu.dtb.align_faults                         0                       # Number of TLB faults due to alignment restrictions
system.cpu.dtb.domain_faults                        0                       # Number of TLB faults due to domain restrictions
system.cpu.dtb.flush_entries                        0                       # Number of entries that have been flushed from TLB
system.cpu.dtb.flush_tlb                            0                       # Number of times complete TLB was flushed
system.cpu.dtb.flush_tlb_asid                       0                       # Number of times TLB was flushed by ASID
system.cpu.dtb.flush_tlb_mva                        0                       # Number of times TLB was flushed by MVA
system.cpu.dtb.flush_tlb_mva_asid                   0                       # Number of times TLB was flushed by MVA & ASID
system.cpu.dtb.hits                                 0                       # DTB hits
system.cpu.dtb.inst_accesses                        0                       # ITB inst accesses
system.cpu.dtb.inst_hits                            0                       # ITB inst hits
system.cpu.dtb.inst_misses                          0                       # ITB inst misses
system.cpu.dtb.misses                               0                       # DTB misses
system.cpu.dtb.perms_faults                         0                       # Number of TLB faults due to permissions restrictions
system.cpu.dtb.prefetch_faults                      0                       # Number of TLB faults due to prefetch
system.cpu.dtb.read_accesses                        0                       # DTB read accesses
system.cpu.dtb.read_hits                            0                       # DTB read hits
system.cpu.dtb.read_misses                          0                       # DTB read misses
system.cpu.dtb.stage2_mmu.stage2_tlb.accesses            0                       # DTB accesses
system.cpu.dtb.stage2_mmu.stage2_tlb.align_faults            0                       # Number of TLB faults due to alignment restrictions
system.cpu.dtb.stage2_mmu.stage2_tlb.domain_faults            0                       # Number of TLB faults due to domain restrictions
system.cpu.dtb.stage2_mmu.stage2_tlb.flush_entries            0                       # Number of entries that have been flushed from TLB
system.cpu.dtb.stage2_mmu.stage2_tlb.flush_tlb            0                       # Number of times complete TLB was flushed
system.cpu.dtb.stage2_mmu.stage2_tlb.flush_tlb_asid            0                       # Number of times TLB was flushed by ASID
system.cpu.dtb.stage2_mmu.stage2_tlb.flush_tlb_mva            0                       # Number of times TLB was flushed by MVA
system.cpu.dtb.stage2_mmu.stage2_tlb.flush_tlb_mva_asid            0                       # Number of times TLB was flushed by MVA & ASID
system.cpu.dtb.stage2_mmu.stage2_tlb.hits            0                       # DTB hits
system.cpu.dtb.stage2_mmu.stage2_tlb.inst_accesses            0                       # ITB inst accesses
system.cpu.dtb.stage2_mmu.stage2_tlb.inst_hits            0                       # ITB inst hits
system.cpu.dtb.stage2_mmu.stage2_tlb.inst_misses            0                       # ITB inst misses
system.cpu.dtb.stage2_mmu.stage2_tlb.misses            0                       # DTB misses
system.cpu.dtb.stage2_mmu.stage2_tlb.perms_faults            0                       # Number of TLB faults due to permissions restrictions
system.cpu.dtb.stage2_mmu.stage2_tlb.prefetch_faults            0                       # Number of TLB faults due to prefetch
system.cpu.dtb.stage2_mmu.stage2_tlb.read_accesses            0                       # DTB read accesses
system.cpu.dtb.stage2_mmu.stage2_tlb.read_hits            0                       # DTB read hits
system.cpu.dtb.stage2_mmu.stage2_tlb.read_misses            0                       # DTB read misses
system.cpu.dtb.stage2_mmu.stage2_tlb.walker.walkRequestOrigin_Requested::Data            0                       # Table walker requests started/completed, data/inst
system.cpu.dtb.stage2_mmu.stage2_tlb.walker.walkRequestOrigin_Requested::Inst            0                       # Table walker requests started/completed, data/inst
system.cpu.dtb.stage2_mmu.stage2_tlb.walker.walkRequestOrigin_Requested::total            0                       # Table walker requests started/completed, data/inst
system.cpu.dtb.stage2_mmu.stage2_tlb.walker.walkRequestOrigin_Completed::Data            0                       # Table walker requests started/completed, data/inst
system.cpu.dtb.stage2_mmu.stage2_tlb.walker.walkRequestOrigin_Completed::Inst            0                       # Table walker requests started/completed, data/inst
system.cpu.dtb.stage2_mmu.stage2_tlb.walker.walkRequestOrigin_Completed::total            0                       # Table walker requests started/completed, data/inst
system.cpu.dtb.stage2_mmu.stage2_tlb.walker.walkRequestOrigin::total            0                       # Table walker requests started/completed, data/inst
system.cpu.dtb.stage2_mmu.stage2_tlb.walker.walks            0                       # Table walker walks requested
system.cpu.dtb.stage2_mmu.stage2_tlb.write_accesses            0                       # DTB write accesses
system.cpu.dtb.stage2_mmu.stage2_tlb.write_hits            0                       # DTB write hits
system.cpu.dtb.stage2_mmu.stage2_tlb.write_misses            0                       # DTB write misses
system.cpu.dtb.walker.walkRequestOrigin_Requested::Data            0                       # Table walker requests started/completed, data/inst
system.cpu.dtb.walker.walkRequestOrigin_Requested::Inst            0                       # Table walker requests started/completed, data/inst
system.cpu.dtb.walker.walkRequestOrigin_Requested::total            0                       # Table walker requests started/completed, data/inst
system.cpu.dtb.walker.walkRequestOrigin_Completed::Data            0                       # Table walker requests started/completed, data/inst
system.cpu.dtb.walker.walkRequestOrigin_Completed::Inst            0                       # Table walker requests started/completed, data/inst
system.cpu.dtb.walker.walkRequestOrigin_Completed::total            0                       # Table walker requests started/completed, data/inst
system.cpu.dtb.walker.walkRequestOrigin::total            0                       # Table walker requests started/completed, data/inst
system.cpu.dtb.walker.walks                         0                       # Table walker walks requested
system.cpu.dtb.write_accesses                       0                       # DTB write accesses
system.cpu.dtb.write_hits                           0                       # DTB write hits
system.cpu.dtb.write_misses                         0                       # DTB write misses
system.cpu.fetch2.amo_instructions                  0                       # Number of memory atomic instructions successfully decoded
system.cpu.fetch2.fp_instructions                   0                       # Number of floating point instructions successfully decoded
system.cpu.fetch2.int_instructions           44891394                       # Number of integer instructions successfully decoded
system.cpu.fetch2.load_instructions           2086227                       # Number of memory load instructions successfully decoded
system.cpu.fetch2.store_instructions           169223                       # Number of memory store instructions successfully decoded
system.cpu.fetch2.vec_instructions                  0                       # Number of SIMD instructions successfully decoded
system.cpu.idleCycles                       355073563                       # Total number of cycles that the object has spent stopped
system.cpu.ipc                               0.174320                       # IPC: instructions per cycle
system.cpu.itb.accesses                             0                       # DTB accesses
system.cpu.itb.align_faults                         0                       # Number of TLB faults due to alignment restrictions
system.cpu.itb.domain_faults                        0                       # Number of TLB faults due to domain restrictions
system.cpu.itb.flush_entries                        0                       # Number of entries that have been flushed from TLB
system.cpu.itb.flush_tlb                            0                       # Number of times complete TLB was flushed
system.cpu.itb.flush_tlb_asid                       0                       # Number of times TLB was flushed by ASID
system.cpu.itb.flush_tlb_mva                        0                       # Number of times TLB was flushed by MVA
system.cpu.itb.flush_tlb_mva_asid                   0                       # Number of times TLB was flushed by MVA & ASID
system.cpu.itb.hits                                 0                       # DTB hits
system.cpu.itb.inst_accesses                        0                       # ITB inst accesses
system.cpu.itb.inst_hits                            0                       # ITB inst hits
system.cpu.itb.inst_misses                          0                       # ITB inst misses
system.cpu.itb.misses                               0                       # DTB misses
system.cpu.itb.perms_faults                         0                       # Number of TLB faults due to permissions restrictions
system.cpu.itb.prefetch_faults                      0                       # Number of TLB faults due to prefetch
system.cpu.itb.read_accesses                        0                       # DTB read accesses
system.cpu.itb.read_hits                            0                       # DTB read hits
system.cpu.itb.read_misses                          0                       # DTB read misses
system.cpu.itb.stage2_mmu.stage2_tlb.accesses            0                       # DTB accesses
system.cpu.itb.stage2_mmu.stage2_tlb.align_faults            0                       # Number of TLB faults due to alignment restrictions
system.cpu.itb.stage2_mmu.stage2_tlb.domain_faults            0                       # Number of TLB faults due to domain restrictions
system.cpu.itb.stage2_mmu.stage2_tlb.flush_entries            0                       # Number of entries that have been flushed from TLB
system.cpu.itb.stage2_mmu.stage2_tlb.flush_tlb            0                       # Number of times complete TLB was flushed
system.cpu.itb.stage2_mmu.stage2_tlb.flush_tlb_asid            0                       # Number of times TLB was flushed by ASID
system.cpu.itb.stage2_mmu.stage2_tlb.flush_tlb_mva            0                       # Number of times TLB was flushed by MVA
system.cpu.itb.stage2_mmu.stage2_tlb.flush_tlb_mva_asid            0                       # Number of times TLB was flushed by MVA & ASID
system.cpu.itb.stage2_mmu.stage2_tlb.hits            0                       # DTB hits
system.cpu.itb.stage2_mmu.stage2_tlb.inst_accesses            0                       # ITB inst accesses
system.cpu.itb.stage2_mmu.stage2_tlb.inst_hits            0                       # ITB inst hits
system.cpu.itb.stage2_mmu.stage2_tlb.inst_misses            0                       # ITB inst misses
system.cpu.itb.stage2_mmu.stage2_tlb.misses            0                       # DTB misses
system.cpu.itb.stage2_mmu.stage2_tlb.perms_faults            0                       # Number of TLB faults due to permissions restrictions
system.cpu.itb.stage2_mmu.stage2_tlb.prefetch_faults            0                       # Number of TLB faults due to prefetch
system.cpu.itb.stage2_mmu.stage2_tlb.read_accesses            0                       # DTB read accesses
system.cpu.itb.stage2_mmu.stage2_tlb.read_hits            0                       # DTB read hits
system.cpu.itb.stage2_mmu.stage2_tlb.read_misses            0                       # DTB read misses
system.cpu.itb.stage2_mmu.stage2_tlb.walker.walkRequestOrigin_Requested::Data            0                       # Table walker requests started/completed, data/inst
system.cpu.itb.stage2_mmu.stage2_tlb.walker.walkRequestOrigin_Requested::Inst            0                       # Table walker requests started/completed, data/inst
system.cpu.itb.stage2_mmu.stage2_tlb.walker.walkRequestOrigin_Requested::total            0                       # Table walker requests started/completed, data/inst
system.cpu.itb.stage2_mmu.stage2_tlb.walker.walkRequestOrigin_Completed::Data            0                       # Table walker requests started/completed, data/inst
system.cpu.itb.stage2_mmu.stage2_tlb.walker.walkRequestOrigin_Completed::Inst            0                       # Table walker requests started/completed, data/inst
system.cpu.itb.stage2_mmu.stage2_tlb.walker.walkRequestOrigin_Completed::total            0                       # Table walker requests started/completed, data/inst
system.cpu.itb.stage2_mmu.stage2_tlb.walker.walkRequestOrigin::total            0                       # Table walker requests started/completed, data/inst
system.cpu.itb.stage2_mmu.stage2_tlb.walker.walks            0                       # Table walker walks requested
system.cpu.itb.stage2_mmu.stage2_tlb.write_accesses            0                       # DTB write accesses
system.cpu.itb.stage2_mmu.stage2_tlb.write_hits            0                       # DTB write hits
system.cpu.itb.stage2_mmu.stage2_tlb.write_misses            0                       # DTB write misses
system.cpu.itb.walker.walkRequestOrigin_Requested::Data            0                       # Table walker requests started/completed, data/inst
system.cpu.itb.walker.walkRequestOrigin_Requested::Inst            0                       # Table walker requests started/completed, data/inst
system.cpu.itb.walker.walkRequestOrigin_Requested::total            0                       # Table walker requests started/completed, data/inst
system.cpu.itb.walker.walkRequestOrigin_Completed::Data            0                       # Table walker requests started/completed, data/inst
system.cpu.itb.walker.walkRequestOrigin_Completed::Inst            0                       # Table walker requests started/completed, data/inst
system.cpu.itb.walker.walkRequestOrigin_Completed::total            0                       # Table walker requests started/completed, data/inst
system.cpu.itb.walker.walkRequestOrigin::total            0                       # Table walker requests started/completed, data/inst
system.cpu.itb.walker.walks                         0                       # Table walker walks requested
system.cpu.itb.write_accesses                       0                       # DTB write accesses
system.cpu.itb.write_hits                           0                       # DTB write hits
system.cpu.itb.write_misses                         0                       # DTB write misses
system.cpu.numCycles                        573656081                       # number of cpu cycles simulated
system.cpu.numFetchSuspends                         0                       # Number of times Execute suspended instruction fetching
system.cpu.numWorkItemsCompleted                    0                       # number of work items this cpu completed
system.cpu.numWorkItemsStarted                      0                       # number of work items this cpu started
system.cpu.op_class_0::No_OpClass                   0      0.00%      0.00% # Class of committed instruction
system.cpu.op_class_0::IntAlu                97640740     53.01%     53.01% # Class of committed instruction
system.cpu.op_class_0::IntMult                 114661      0.06%     53.08% # Class of committed instruction
system.cpu.op_class_0::IntDiv                       0      0.00%     53.08% # Class of committed instruction
system.cpu.op_class_0::FloatAdd                     0      0.00%     53.08% # Class of committed instruction
system.cpu.op_class_0::FloatCmp                     0      0.00%     53.08% # Class of committed instruction
system.cpu.op_class_0::FloatCvt                     0      0.00%     53.08% # Class of committed instruction
system.cpu.op_class_0::FloatMult                    0      0.00%     53.08% # Class of committed instruction
system.cpu.op_class_0::FloatMultAcc                 0      0.00%     53.08% # Class of committed instruction
system.cpu.op_class_0::FloatDiv                     0      0.00%     53.08% # Class of committed instruction
system.cpu.op_class_0::FloatMisc                    0      0.00%     53.08% # Class of committed instruction
system.cpu.op_class_0::FloatSqrt                    0      0.00%     53.08% # Class of committed instruction
system.cpu.op_class_0::SimdAdd                      0      0.00%     53.08% # Class of committed instruction
system.cpu.op_class_0::SimdAddAcc                   0      0.00%     53.08% # Class of committed instruction
system.cpu.op_class_0::SimdAlu                      0      0.00%     53.08% # Class of committed instruction
system.cpu.op_class_0::SimdCmp                      0      0.00%     53.08% # Class of committed instruction
system.cpu.op_class_0::SimdCvt                      0      0.00%     53.08% # Class of committed instruction
system.cpu.op_class_0::SimdMisc                     0      0.00%     53.08% # Class of committed instruction
system.cpu.op_class_0::SimdMult                     0      0.00%     53.08% # Class of committed instruction
system.cpu.op_class_0::SimdMultAcc                  0      0.00%     53.08% # Class of committed instruction
system.cpu.op_class_0::SimdShift                    0      0.00%     53.08% # Class of committed instruction
system.cpu.op_class_0::SimdShiftAcc                 0      0.00%     53.08% # Class of committed instruction
system.cpu.op_class_0::SimdDiv                      0      0.00%     53.08% # Class of committed instruction
system.cpu.op_class_0::SimdSqrt                     0      0.00%     53.08% # Class of committed instruction
system.cpu.op_class_0::SimdFloatAdd                 0      0.00%     53.08% # Class of committed instruction
system.cpu.op_class_0::SimdFloatAlu                 0      0.00%     53.08% # Class of committed instruction
system.cpu.op_class_0::SimdFloatCmp                 0      0.00%     53.08% # Class of committed instruction
system.cpu.op_class_0::SimdFloatCvt                 0      0.00%     53.08% # Class of committed instruction
system.cpu.op_class_0::SimdFloatDiv                 0      0.00%     53.08% # Class of committed instruction
system.cpu.op_class_0::SimdFloatMisc                2      0.00%     53.08% # Class of committed instruction
system.cpu.op_class_0::SimdFloatMult                0      0.00%     53.08% # Class of committed instruction
system.cpu.op_class_0::SimdFloatMultAcc             0      0.00%     53.08% # Class of committed instruction
system.cpu.op_class_0::SimdFloatSqrt                0      0.00%     53.08% # Class of committed instruction
system.cpu.op_class_0::SimdReduceAdd                0      0.00%     53.08% # Class of committed instruction
system.cpu.op_class_0::SimdReduceAlu                0      0.00%     53.08% # Class of committed instruction
system.cpu.op_class_0::SimdReduceCmp                0      0.00%     53.08% # Class of committed instruction
system.cpu.op_class_0::SimdFloatReduceAdd            0      0.00%     53.08% # Class of committed instruction
system.cpu.op_class_0::SimdFloatReduceCmp            0      0.00%     53.08% # Class of committed instruction
system.cpu.op_class_0::SimdAes                      0      0.00%     53.08% # Class of committed instruction
system.cpu.op_class_0::SimdAesMix                   0      0.00%     53.08% # Class of committed instruction
system.cpu.op_class_0::SimdSha1Hash                 0      0.00%     53.08% # Class of committed instruction
system.cpu.op_class_0::SimdSha1Hash2                0      0.00%     53.08% # Class of committed instruction
system.cpu.op_class_0::SimdSha256Hash               0      0.00%     53.08% # Class of committed instruction
system.cpu.op_class_0::SimdSha256Hash2              0      0.00%     53.08% # Class of committed instruction
system.cpu.op_class_0::SimdShaSigma2                0      0.00%     53.08% # Class of committed instruction
system.cpu.op_class_0::SimdShaSigma3                0      0.00%     53.08% # Class of committed instruction
system.cpu.op_class_0::SimdPredAlu                  0      0.00%     53.08% # Class of committed instruction
system.cpu.op_class_0::MemRead                2082333      1.13%     54.21% # Class of committed instruction
system.cpu.op_class_0::MemWrite              84341627     45.79%    100.00% # Class of committed instruction
system.cpu.op_class_0::FloatMemRead                 0      0.00%    100.00% # Class of committed instruction
system.cpu.op_class_0::FloatMemWrite                0      0.00%    100.00% # Class of committed instruction
system.cpu.op_class_0::IprAccess                    0      0.00%    100.00% # Class of committed instruction
system.cpu.op_class_0::InstPrefetch                 0      0.00%    100.00% # Class of committed instruction
system.cpu.op_class_0::total                184179363                       # Class of committed instruction
system.cpu.tickCycles                       218582518                       # Number of cycles that the object actually ticked
system.cpu.workload.numSyscalls                    19                       # Number of system calls
system.membus.snoop_filter.hit_multi_requests           56                       # Number of requests hitting in the snoop filter with multiple (>1) holders of the requested data.
system.membus.snoop_filter.hit_multi_snoops            0                       # Number of snoops hitting in the snoop filter with multiple (>1) holders of the requested data.
system.membus.snoop_filter.hit_single_requests      2631162                       # Number of requests hitting in the snoop filter with a single holder of the requested data.
system.membus.snoop_filter.hit_single_snoops            0                       # Number of snoops hitting in the snoop filter with a single holder of the requested data.
system.membus.snoop_filter.tot_requests       5263577                       # Total number of requests made to the snoop filter.
system.membus.snoop_filter.tot_snoops               0                       # Total number of snoops made to the snoop filter.
system.membus.pwrStateResidencyTicks::UNDEFINED 286828040500                       # Cumulative time (in ticks) in various power states
system.membus.trans_dist::ReadResp                656                       # Transaction distribution
system.membus.trans_dist::WritebackDirty      2630761                       # Transaction distribution
system.membus.trans_dist::WritebackClean          208                       # Transaction distribution
system.membus.trans_dist::CleanEvict              193                       # Transaction distribution
system.membus.trans_dist::ReadExReq           2631759                       # Transaction distribution
system.membus.trans_dist::ReadExResp          2631759                       # Transaction distribution
system.membus.trans_dist::ReadCleanReq            437                       # Transaction distribution
system.membus.trans_dist::ReadSharedReq           219                       # Transaction distribution
system.membus.pkt_count_system.cpu.icache.mem_side::system.mem_ctrls.port         1082                       # Packet count per connected master and slave (bytes)
system.membus.pkt_count_system.cpu.dcache.mem_side::system.mem_ctrls.port      7894910                       # Packet count per connected master and slave (bytes)
system.membus.pkt_count::total                7895992                       # Packet count per connected master and slave (bytes)
system.membus.pkt_size_system.cpu.icache.mem_side::system.mem_ctrls.port        82560                       # Cumulative packet size per connected master and slave (bytes)
system.membus.pkt_size_system.cpu.dcache.mem_side::system.mem_ctrls.port    673630592                       # Cumulative packet size per connected master and slave (bytes)
system.membus.pkt_size::total               673713152                       # Cumulative packet size per connected master and slave (bytes)
system.membus.snoops                                0                       # Total snoops (count)
system.membus.snoopTraffic                          0                       # Total snoop traffic (bytes)
system.membus.snoop_fanout::samples           2632415                       # Request fanout histogram
system.membus.snoop_fanout::mean             0.000021                       # Request fanout histogram
system.membus.snoop_fanout::stdev            0.004612                       # Request fanout histogram
system.membus.snoop_fanout::underflows              0      0.00%      0.00% # Request fanout histogram
system.membus.snoop_fanout::0                 2632359    100.00%    100.00% # Request fanout histogram
system.membus.snoop_fanout::1                      56      0.00%    100.00% # Request fanout histogram
system.membus.snoop_fanout::2                       0      0.00%    100.00% # Request fanout histogram
system.membus.snoop_fanout::overflows               0      0.00%    100.00% # Request fanout histogram
system.membus.snoop_fanout::min_value               0                       # Request fanout histogram
system.membus.snoop_fanout::max_value               1                       # Request fanout histogram
system.membus.snoop_fanout::total             2632415                       # Request fanout histogram
system.membus.reqLayer0.occupancy         26311872000                       # Layer occupancy (ticks)
system.membus.reqLayer0.utilization               9.2                       # Layer utilization (%)
system.membus.respLayer1.occupancy            4081500                       # Layer occupancy (ticks)
system.membus.respLayer1.utilization              0.0                       # Layer utilization (%)
system.membus.respLayer2.occupancy        24385267250                       # Layer occupancy (ticks)
system.membus.respLayer2.utilization              8.5                       # Layer utilization (%)
system.voltage_domain.voltage                       1                       # Voltage in Volts
system.clk_domain.clock                          1000                       # Clock period in ticks
system.cpu_voltage_domain.voltage                   1                       # Voltage in Volts
system.mem_ctrls.pwrStateResidencyTicks::UNDEFINED 286828040500                       # Cumulative time (in ticks) in various power states
system.mem_ctrls.bytes_read::.cpu.inst          55936                       # Number of bytes read from this memory
system.mem_ctrls.bytes_read::.cpu.data      336893184                       # Number of bytes read from this memory
system.mem_ctrls.bytes_read::total          336949120                       # Number of bytes read from this memory
system.mem_ctrls.bytes_inst_read::.cpu.inst        55936                       # Number of instructions bytes read from this memory
system.mem_ctrls.bytes_inst_read::total         55936                       # Number of instructions bytes read from this memory
system.mem_ctrls.bytes_written::.writebacks    336737408                       # Number of bytes written to this memory
system.mem_ctrls.bytes_written::total       336737408                       # Number of bytes written to this memory
system.mem_ctrls.num_reads::.cpu.inst             437                       # Number of read requests responded to by this memory
system.mem_ctrls.num_reads::.cpu.data         2631978                       # Number of read requests responded to by this memory
system.mem_ctrls.num_reads::total             2632415                       # Number of read requests responded to by this memory
system.mem_ctrls.num_writes::.writebacks      2630761                       # Number of write requests responded to by this memory
system.mem_ctrls.num_writes::total            2630761                       # Number of write requests responded to by this memory
system.mem_ctrls.bw_read::.cpu.inst            195016                       # Total read bandwidth from this memory (bytes/s)
system.mem_ctrls.bw_read::.cpu.data        1174547591                       # Total read bandwidth from this memory (bytes/s)
system.mem_ctrls.bw_read::total            1174742607                       # Total read bandwidth from this memory (bytes/s)
system.mem_ctrls.bw_inst_read::.cpu.inst       195016                       # Instruction read bandwidth from this memory (bytes/s)
system.mem_ctrls.bw_inst_read::total           195016                       # Instruction read bandwidth from this memory (bytes/s)
system.mem_ctrls.bw_write::.writebacks     1174004492                       # Write bandwidth from this memory (bytes/s)
system.mem_ctrls.bw_write::total           1174004492                       # Write bandwidth from this memory (bytes/s)
system.mem_ctrls.bw_total::.writebacks     1174004492                       # Total bandwidth to/from this memory (bytes/s)
system.mem_ctrls.bw_total::.cpu.inst           195016                       # Total bandwidth to/from this memory (bytes/s)
system.mem_ctrls.bw_total::.cpu.data       1174547591                       # Total bandwidth to/from this memory (bytes/s)
system.mem_ctrls.bw_total::total           2348747099                       # Total bandwidth to/from this memory (bytes/s)
system.mem_ctrls.avgPriority_.writebacks::samples   5261930.00                       # Average QoS priority value for accepted requests
system.mem_ctrls.avgPriority_.cpu.inst::samples       860.00                       # Average QoS priority value for accepted requests
system.mem_ctrls.avgPriority_.cpu.data::samples   5263954.00                       # Average QoS priority value for accepted requests
system.mem_ctrls.priorityMinLatency      0.000000018750                       # per QoS priority minimum request to response latency (s)
system.mem_ctrls.priorityMaxLatency      0.001933076500                       # per QoS priority maximum request to response latency (s)
system.mem_ctrls.numReadWriteTurnArounds       328665                       # Number of turnarounds from READ to WRITE
system.mem_ctrls.numWriteReadTurnArounds       328665                       # Number of turnarounds from WRITE to READ
system.mem_ctrls.numStayReadState            10271878                       # Number of times bus staying in READ state
system.mem_ctrls.numStayWriteState            4933386                       # Number of times bus staying in WRITE state
system.mem_ctrls.readReqs                     2632415                       # Number of read requests accepted
system.mem_ctrls.writeReqs                    2630965                       # Number of write requests accepted
system.mem_ctrls.readBursts                   5264830                       # Number of DRAM read bursts, including those serviced by the write queue
system.mem_ctrls.writeBursts                  5261930                       # Number of DRAM write bursts, including those merged in the write queue
system.mem_ctrls.servicedByWrQ                     16                       # Number of DRAM read bursts serviced by the write queue
system.mem_ctrls.mergedWrBursts                     0                       # Number of DRAM write bursts merged with an existing one
system.mem_ctrls.neitherReadNorWriteReqs            0                       # Number of requests that are neither read nor write
system.mem_ctrls.perBankRdBursts::0            329234                       # Per bank write bursts
system.mem_ctrls.perBankRdBursts::1            329164                       # Per bank write bursts
system.mem_ctrls.perBankRdBursts::2            329280                       # Per bank write bursts
system.mem_ctrls.perBankRdBursts::3            329198                       # Per bank write bursts
system.mem_ctrls.perBankRdBursts::4            329154                       # Per bank write bursts
system.mem_ctrls.perBankRdBursts::5            329092                       # Per bank write bursts
system.mem_ctrls.perBankRdBursts::6            329148                       # Per bank write bursts
system.mem_ctrls.perBankRdBursts::7            328876                       # Per bank write bursts
system.mem_ctrls.perBankRdBursts::8            328926                       # Per bank write bursts
system.mem_ctrls.perBankRdBursts::9            328888                       # Per bank write bursts
system.mem_ctrls.perBankRdBursts::10           328900                       # Per bank write bursts
system.mem_ctrls.perBankRdBursts::11           329098                       # Per bank write bursts
system.mem_ctrls.perBankRdBursts::12           328992                       # Per bank write bursts
system.mem_ctrls.perBankRdBursts::13           328868                       # Per bank write bursts
system.mem_ctrls.perBankRdBursts::14           329024                       # Per bank write bursts
system.mem_ctrls.perBankRdBursts::15           328972                       # Per bank write bursts
system.mem_ctrls.perBankWrBursts::0            328962                       # Per bank write bursts
system.mem_ctrls.perBankWrBursts::1            328972                       # Per bank write bursts
system.mem_ctrls.perBankWrBursts::2            329092                       # Per bank write bursts
system.mem_ctrls.perBankWrBursts::3            328985                       # Per bank write bursts
system.mem_ctrls.perBankWrBursts::4            328948                       # Per bank write bursts
system.mem_ctrls.perBankWrBursts::5            328928                       # Per bank write bursts
system.mem_ctrls.perBankWrBursts::6            328968                       # Per bank write bursts
system.mem_ctrls.perBankWrBursts::7            328712                       # Per bank write bursts
system.mem_ctrls.perBankWrBursts::8            328746                       # Per bank write bursts
system.mem_ctrls.perBankWrBursts::9            328720                       # Per bank write bursts
system.mem_ctrls.perBankWrBursts::10           328760                       # Per bank write bursts
system.mem_ctrls.perBankWrBursts::11           328930                       # Per bank write bursts
system.mem_ctrls.perBankWrBursts::12           328846                       # Per bank write bursts
system.mem_ctrls.perBankWrBursts::13           328704                       # Per bank write bursts
system.mem_ctrls.perBankWrBursts::14           328844                       # Per bank write bursts
system.mem_ctrls.perBankWrBursts::15           328788                       # Per bank write bursts
system.mem_ctrls.avgRdQLen                       2.02                       # Average read queue length when enqueuing
system.mem_ctrls.avgWrQLen                      27.00                       # Average write queue length when enqueuing
system.mem_ctrls.totQLat                 107223226750                       # Total ticks spent queuing
system.mem_ctrls.totBusLat                26324070000                       # Total ticks spent in databus transfers
system.mem_ctrls.totMemAccLat            205938489250                       # Total ticks spent from burst creation until serviced by the DRAM
system.mem_ctrls.avgQLat                     20366.00                       # Average queueing delay per DRAM burst
system.mem_ctrls.avgBusLat                    5000.00                       # Average bus latency per DRAM burst
system.mem_ctrls.avgMemAccLat                39116.00                       # Average memory access latency per DRAM burst
system.mem_ctrls.numRdRetry                         0                       # Number of times read queue was full causing retry
system.mem_ctrls.numWrRetry                         0                       # Number of times write queue was full causing retry
system.mem_ctrls.readRowHits                  4862020                       # Number of row buffer hits during reads
system.mem_ctrls.writeRowHits                 4891257                       # Number of row buffer hits during writes
system.mem_ctrls.readRowHitRate                 92.35                       # Row buffer hit rate for reads
system.mem_ctrls.writeRowHitRate                92.96                       # Row buffer hit rate for writes
system.mem_ctrls.readPktSize::0                     0                       # Read request sizes (log2)
system.mem_ctrls.readPktSize::1                     0                       # Read request sizes (log2)
system.mem_ctrls.readPktSize::2                     0                       # Read request sizes (log2)
system.mem_ctrls.readPktSize::3                     0                       # Read request sizes (log2)
system.mem_ctrls.readPktSize::4                     0                       # Read request sizes (log2)
system.mem_ctrls.readPktSize::5                     0                       # Read request sizes (log2)
system.mem_ctrls.readPktSize::6               5264830                       # Read request sizes (log2)
system.mem_ctrls.writePktSize::0                    0                       # Write request sizes (log2)
system.mem_ctrls.writePktSize::1                    0                       # Write request sizes (log2)
system.mem_ctrls.writePktSize::2                    0                       # Write request sizes (log2)
system.mem_ctrls.writePktSize::3                    0                       # Write request sizes (log2)
system.mem_ctrls.writePktSize::4                    0                       # Write request sizes (log2)
system.mem_ctrls.writePktSize::5                    0                       # Write request sizes (log2)
system.mem_ctrls.writePktSize::6              5261930                       # Write request sizes (log2)
system.mem_ctrls.rdQLenPdf::0                 2631680                       # What read queue length does an incoming req see
system.mem_ctrls.rdQLenPdf::1                 2631682                       # What read queue length does an incoming req see
system.mem_ctrls.rdQLenPdf::2                     714                       # What read queue length does an incoming req see
system.mem_ctrls.rdQLenPdf::3                     713                       # What read queue length does an incoming req see
system.mem_ctrls.rdQLenPdf::4                      13                       # What read queue length does an incoming req see
system.mem_ctrls.rdQLenPdf::5                      12                       # What read queue length does an incoming req see
system.mem_ctrls.rdQLenPdf::6                       0                       # What read queue length does an incoming req see
system.mem_ctrls.rdQLenPdf::7                       0                       # What read queue length does an incoming req see
system.mem_ctrls.rdQLenPdf::8                       0                       # What read queue length does an incoming req see
system.mem_ctrls.rdQLenPdf::9                       0                       # What read queue length does an incoming req see
system.mem_ctrls.rdQLenPdf::10                      0                       # What read queue length does an incoming req see
system.mem_ctrls.rdQLenPdf::11                      0                       # What read queue length does an incoming req see
system.mem_ctrls.rdQLenPdf::12                      0                       # What read queue length does an incoming req see
system.mem_ctrls.rdQLenPdf::13                      0                       # What read queue length does an incoming req see
system.mem_ctrls.rdQLenPdf::14                      0                       # What read queue length does an incoming req see
system.mem_ctrls.rdQLenPdf::15                      0                       # What read queue length does an incoming req see
system.mem_ctrls.rdQLenPdf::16                      0                       # What read queue length does an incoming req see
system.mem_ctrls.rdQLenPdf::17                      0                       # What read queue length does an incoming req see
system.mem_ctrls.rdQLenPdf::18                      0                       # What read queue length does an incoming req see
system.mem_ctrls.rdQLenPdf::19                      0                       # What read queue length does an incoming req see
system.mem_ctrls.rdQLenPdf::20                      0                       # What read queue length does an incoming req see
system.mem_ctrls.rdQLenPdf::21                      0                       # What read queue length does an incoming req see
system.mem_ctrls.rdQLenPdf::22                      0                       # What read queue length does an incoming req see
system.mem_ctrls.rdQLenPdf::23                      0                       # What read queue length does an incoming req see
system.mem_ctrls.rdQLenPdf::24                      0                       # What read queue length does an incoming req see
system.mem_ctrls.rdQLenPdf::25                      0                       # What read queue length does an incoming req see
system.mem_ctrls.rdQLenPdf::26                      0                       # What read queue length does an incoming req see
system.mem_ctrls.rdQLenPdf::27                      0                       # What read queue length does an incoming req see
system.mem_ctrls.rdQLenPdf::28                      0                       # What read queue length does an incoming req see
system.mem_ctrls.rdQLenPdf::29                      0                       # What read queue length does an incoming req see
system.mem_ctrls.rdQLenPdf::30                      0                       # What read queue length does an incoming req see
system.mem_ctrls.rdQLenPdf::31                      0                       # What read queue length does an incoming req see
system.mem_ctrls.wrQLenPdf::0                       1                       # What write queue length does an incoming req see
system.mem_ctrls.wrQLenPdf::1                       1                       # What write queue length does an incoming req see
system.mem_ctrls.wrQLenPdf::2                       1                       # What write queue length does an incoming req see
system.mem_ctrls.wrQLenPdf::3                       1                       # What write queue length does an incoming req see
system.mem_ctrls.wrQLenPdf::4                       1                       # What write queue length does an incoming req see
system.mem_ctrls.wrQLenPdf::5                       1                       # What write queue length does an incoming req see
system.mem_ctrls.wrQLenPdf::6                       1                       # What write queue length does an incoming req see
system.mem_ctrls.wrQLenPdf::7                       1                       # What write queue length does an incoming req see
system.mem_ctrls.wrQLenPdf::8                       1                       # What write queue length does an incoming req see
system.mem_ctrls.wrQLenPdf::9                       1                       # What write queue length does an incoming req see
system.mem_ctrls.wrQLenPdf::10                      1                       # What write queue length does an incoming req see
system.mem_ctrls.wrQLenPdf::11                      1                       # What write queue length does an incoming req see
system.mem_ctrls.wrQLenPdf::12                      1                       # What write queue length does an incoming req see
system.mem_ctrls.wrQLenPdf::13                      1                       # What write queue length does an incoming req see
system.mem_ctrls.wrQLenPdf::14                      1                       # What write queue length does an incoming req see
system.mem_ctrls.wrQLenPdf::15                    825                       # What write queue length does an incoming req see
system.mem_ctrls.wrQLenPdf::16                    830                       # What write queue length does an incoming req see
system.mem_ctrls.wrQLenPdf::17                 328119                       # What write queue length does an incoming req see
system.mem_ctrls.wrQLenPdf::18                 328327                       # What write queue length does an incoming req see
system.mem_ctrls.wrQLenPdf::19                 329252                       # What write queue length does an incoming req see
system.mem_ctrls.wrQLenPdf::20                 329108                       # What write queue length does an incoming req see
system.mem_ctrls.wrQLenPdf::21                 328856                       # What write queue length does an incoming req see
system.mem_ctrls.wrQLenPdf::22                 328858                       # What write queue length does an incoming req see
system.mem_ctrls.wrQLenPdf::23                 328672                       # What write queue length does an incoming req see
system.mem_ctrls.wrQLenPdf::24                 328671                       # What write queue length does an incoming req see
system.mem_ctrls.wrQLenPdf::25                 328673                       # What write queue length does an incoming req see
system.mem_ctrls.wrQLenPdf::26                 329163                       # What write queue length does an incoming req see
system.mem_ctrls.wrQLenPdf::27                 329157                       # What write queue length does an incoming req see
system.mem_ctrls.wrQLenPdf::28                 328669                       # What write queue length does an incoming req see
system.mem_ctrls.wrQLenPdf::29                 328669                       # What write queue length does an incoming req see
system.mem_ctrls.wrQLenPdf::30                 328666                       # What write queue length does an incoming req see
system.mem_ctrls.wrQLenPdf::31                 328665                       # What write queue length does an incoming req see
system.mem_ctrls.wrQLenPdf::32                 328665                       # What write queue length does an incoming req see
system.mem_ctrls.wrQLenPdf::33                     70                       # What write queue length does an incoming req see
system.mem_ctrls.wrQLenPdf::34                      0                       # What write queue length does an incoming req see
system.mem_ctrls.wrQLenPdf::35                      0                       # What write queue length does an incoming req see
system.mem_ctrls.wrQLenPdf::36                      0                       # What write queue length does an incoming req see
system.mem_ctrls.wrQLenPdf::37                      0                       # What write queue length does an incoming req see
system.mem_ctrls.wrQLenPdf::38                      0                       # What write queue length does an incoming req see
system.mem_ctrls.wrQLenPdf::39                      0                       # What write queue length does an incoming req see
system.mem_ctrls.wrQLenPdf::40                      0                       # What write queue length does an incoming req see
system.mem_ctrls.wrQLenPdf::41                      0                       # What write queue length does an incoming req see
system.mem_ctrls.wrQLenPdf::42                      0                       # What write queue length does an incoming req see
system.mem_ctrls.wrQLenPdf::43                      0                       # What write queue length does an incoming req see
system.mem_ctrls.wrQLenPdf::44                      0                       # What write queue length does an incoming req see
system.mem_ctrls.wrQLenPdf::45                      0                       # What write queue length does an incoming req see
system.mem_ctrls.wrQLenPdf::46                      0                       # What write queue length does an incoming req see
system.mem_ctrls.wrQLenPdf::47                      0                       # What write queue length does an incoming req see
system.mem_ctrls.wrQLenPdf::48                      0                       # What write queue length does an incoming req see
system.mem_ctrls.wrQLenPdf::49                      0                       # What write queue length does an incoming req see
system.mem_ctrls.wrQLenPdf::50                      0                       # What write queue length does an incoming req see
system.mem_ctrls.wrQLenPdf::51                      0                       # What write queue length does an incoming req see
system.mem_ctrls.wrQLenPdf::52                      0                       # What write queue length does an incoming req see
system.mem_ctrls.wrQLenPdf::53                      0                       # What write queue length does an incoming req see
system.mem_ctrls.wrQLenPdf::54                      0                       # What write queue length does an incoming req see
system.mem_ctrls.wrQLenPdf::55                      0                       # What write queue length does an incoming req see
system.mem_ctrls.wrQLenPdf::56                      0                       # What write queue length does an incoming req see
system.mem_ctrls.wrQLenPdf::57                      0                       # What write queue length does an incoming req see
system.mem_ctrls.wrQLenPdf::58                      0                       # What write queue length does an incoming req see
system.mem_ctrls.wrQLenPdf::59                      0                       # What write queue length does an incoming req see
system.mem_ctrls.wrQLenPdf::60                      0                       # What write queue length does an incoming req see
system.mem_ctrls.wrQLenPdf::61                      0                       # What write queue length does an incoming req see
system.mem_ctrls.wrQLenPdf::62                      0                       # What write queue length does an incoming req see
system.mem_ctrls.wrQLenPdf::63                      0                       # What write queue length does an incoming req see
system.mem_ctrls.bytesPerActivate::samples       773440                       # Bytes accessed per row activation
system.mem_ctrls.bytesPerActivate::mean    871.055192                       # Bytes accessed per row activation
system.mem_ctrls.bytesPerActivate::gmean   783.658373                       # Bytes accessed per row activation
system.mem_ctrls.bytesPerActivate::stdev   279.699538                       # Bytes accessed per row activation
system.mem_ctrls.bytesPerActivate::0-127         6206      0.80%      0.80% # Bytes accessed per row activation
system.mem_ctrls.bytesPerActivate::128-255        32821      4.24%      5.05% # Bytes accessed per row activation
system.mem_ctrls.bytesPerActivate::256-383        47865      6.19%     11.23% # Bytes accessed per row activation
system.mem_ctrls.bytesPerActivate::384-511        17522      2.27%     13.50% # Bytes accessed per row activation
system.mem_ctrls.bytesPerActivate::512-639        41484      5.36%     18.86% # Bytes accessed per row activation
system.mem_ctrls.bytesPerActivate::640-767        17045      2.20%     21.07% # Bytes accessed per row activation
system.mem_ctrls.bytesPerActivate::768-895        35946      4.65%     25.71% # Bytes accessed per row activation
system.mem_ctrls.bytesPerActivate::896-1023        22625      2.93%     28.64% # Bytes accessed per row activation
system.mem_ctrls.bytesPerActivate::1024-1151       551926     71.36%    100.00% # Bytes accessed per row activation
system.mem_ctrls.bytesPerActivate::total       773440                       # Bytes accessed per row activation
system.mem_ctrls.rdPerTurnAround::samples       328665                       # Reads before turning the bus around for writes
system.mem_ctrls.rdPerTurnAround::mean      16.018761                       # Reads before turning the bus around for writes
system.mem_ctrls.rdPerTurnAround::gmean     16.011314                       # Reads before turning the bus around for writes
system.mem_ctrls.rdPerTurnAround::stdev      2.626421                       # Reads before turning the bus around for writes
system.mem_ctrls.rdPerTurnAround::0-63         328660    100.00%    100.00% # Reads before turning the bus around for writes
system.mem_ctrls.rdPerTurnAround::64-127            2      0.00%    100.00% # Reads before turning the bus around for writes
system.mem_ctrls.rdPerTurnAround::128-191            1      0.00%    100.00% # Reads before turning the bus around for writes
system.mem_ctrls.rdPerTurnAround::384-447            1      0.00%    100.00% # Reads before turning the bus around for writes
system.mem_ctrls.rdPerTurnAround::1408-1471            1      0.00%    100.00% # Reads before turning the bus around for writes
system.mem_ctrls.rdPerTurnAround::total        328665                       # Reads before turning the bus around for writes
system.mem_ctrls.wrPerTurnAround::samples       328665                       # Writes before turning the bus around for reads
system.mem_ctrls.wrPerTurnAround::mean      16.009934                       # Writes before turning the bus around for reads
system.mem_ctrls.wrPerTurnAround::gmean     16.008880                       # Writes before turning the bus around for reads
system.mem_ctrls.wrPerTurnAround::stdev      0.198059                       # Writes before turning the bus around for reads
system.mem_ctrls.wrPerTurnAround::16           327830     99.75%     99.75% # Writes before turning the bus around for reads
system.mem_ctrls.wrPerTurnAround::17                4      0.00%     99.75% # Writes before turning the bus around for reads
system.mem_ctrls.wrPerTurnAround::18               31      0.01%     99.76% # Writes before turning the bus around for reads
system.mem_ctrls.wrPerTurnAround::19                3      0.00%     99.76% # Writes before turning the bus around for reads
system.mem_ctrls.wrPerTurnAround::20              795      0.24%    100.00% # Writes before turning the bus around for reads
system.mem_ctrls.wrPerTurnAround::21                2      0.00%    100.00% # Writes before turning the bus around for reads
system.mem_ctrls.wrPerTurnAround::total        328665                       # Writes before turning the bus around for reads
system.mem_ctrls.bytesReadDRAM              336948096                       # Total number of bytes read from DRAM
system.mem_ctrls.bytesReadWrQ                    1024                       # Total number of bytes read from write queue
system.mem_ctrls.bytesWritten               336761920                       # Total number of bytes written to DRAM
system.mem_ctrls.bytesReadSys               336949120                       # Total read bytes from the system interface side
system.mem_ctrls.bytesWrittenSys            336763520                       # Total written bytes from the system interface side
system.mem_ctrls.avgRdBW                      1174.74                       # Average DRAM read bandwidth in MiByte/s
system.mem_ctrls.avgWrBW                      1174.09                       # Average achieved write bandwidth in MiByte/s
system.mem_ctrls.avgRdBWSys                   1174.74                       # Average system read bandwidth in MiByte/s
system.mem_ctrls.avgWrBWSys                   1174.10                       # Average system write bandwidth in MiByte/s
system.mem_ctrls.peakBW                      12800.00                       # Theoretical peak bandwidth in MiByte/s
system.mem_ctrls.busUtil                        18.35                       # Data bus utilization in percentage
system.mem_ctrls.busUtilRead                     9.18                       # Data bus utilization in percentage for reads
system.mem_ctrls.busUtilWrite                    9.17                       # Data bus utilization in percentage for writes
system.mem_ctrls.totGap                  286828028500                       # Total gap between requests
system.mem_ctrls.avgGap                      54495.03                       # Average gap between requests
system.mem_ctrls.masterReadBytes::.cpu.inst        55040                       # Per-master bytes read from memory
system.mem_ctrls.masterReadBytes::.cpu.data    336893056                       # Per-master bytes read from memory
system.mem_ctrls.masterWriteBytes::.writebacks    336761920                       # Per-master bytes write to memory
system.mem_ctrls.masterReadRate::.cpu.inst 191891.977869576542                       # Per-master bytes read from memory rate (Bytes/sec)
system.mem_ctrls.masterReadRate::.cpu.data 1174547144.737754583359                       # Per-master bytes read from memory rate (Bytes/sec)
system.mem_ctrls.masterWriteRate::.writebacks 1174089950.943969964981                       # Per-master bytes write to memory rate (Bytes/sec)
system.mem_ctrls.masterReadAccesses::.cpu.inst          874                       # Per-master read serviced memory accesses
system.mem_ctrls.masterReadAccesses::.cpu.data      5263956                       # Per-master read serviced memory accesses
system.mem_ctrls.masterWriteAccesses::.writebacks      5261930                       # Per-master write serviced memory accesses
system.mem_ctrls.masterReadTotalLat::.cpu.inst     30467000                       # Per-master read total memory access latency
system.mem_ctrls.masterReadTotalLat::.cpu.data 205908022250                       # Per-master read total memory access latency
system.mem_ctrls.masterWriteTotalLat::.writebacks 7056507609250                       # Per-master write total memory access latency
system.mem_ctrls.masterReadAvgLat::.cpu.inst     34859.27                       # Per-master read average memory access latency
system.mem_ctrls.masterReadAvgLat::.cpu.data     39116.59                       # Per-master read average memory access latency
system.mem_ctrls.masterWriteAvgLat::.writebacks   1341049.31                       # Per-master write average memory access latency
system.mem_ctrls.pageHitRate                    92.65                       # Row buffer hit rate, read and write combined
system.mem_ctrls.rank1.actEnergy           2760431100                       # Energy for activate commands per rank (pJ)
system.mem_ctrls.rank1.preEnergy           1467203925                       # Energy for precharge commands per rank (pJ)
system.mem_ctrls.rank1.readEnergy         18790109520                       # Energy for read commands per rank (pJ)
system.mem_ctrls.rank1.writeEnergy        13730364360                       # Energy for write commands per rank (pJ)
system.mem_ctrls.rank1.refreshEnergy     22641493680.000004                       # Energy for refresh commands per rank (pJ)
system.mem_ctrls.rank1.actBackEnergy      71058597990                       # Energy for active background per rank (pJ)
system.mem_ctrls.rank1.preBackEnergy      50303148480                       # Energy for precharge background per rank (pJ)
system.mem_ctrls.rank1.actPowerDownEnergy            0                       # Energy for active power-down per rank (pJ)
system.mem_ctrls.rank1.prePowerDownEnergy            0                       # Energy for precharge power-down per rank (pJ)
system.mem_ctrls.rank1.selfRefreshEnergy            0                       # Energy for self refresh per rank (pJ)
system.mem_ctrls.rank1.totalEnergy       180751349055                       # Total energy per rank (pJ)
system.mem_ctrls.rank1.averagePower        630.173217                       # Core power per rank (mW)
system.mem_ctrls.rank1.totalIdleTime                0                       # Total Idle time Per DRAM Rank
system.mem_ctrls.rank1.memoryStateTime::IDLE 128231053250                       # Time in different power states
system.mem_ctrls.rank1.memoryStateTime::REF   9577620000                       # Time in different power states
system.mem_ctrls.rank1.memoryStateTime::SREF            0                       # Time in different power states
system.mem_ctrls.rank1.memoryStateTime::PRE_PDN            0                       # Time in different power states
system.mem_ctrls.rank1.memoryStateTime::ACT 149019367250                       # Time in different power states
system.mem_ctrls.rank1.memoryStateTime::ACT_PDN            0                       # Time in different power states
system.mem_ctrls.rank0.actEnergy           2761944780                       # Energy for activate commands per rank (pJ)
system.mem_ctrls.rank0.preEnergy           1468000875                       # Energy for precharge commands per rank (pJ)
system.mem_ctrls.rank0.readEnergy         18800662440                       # Energy for read commands per rank (pJ)
system.mem_ctrls.rank0.writeEnergy        13736779740                       # Energy for write commands per rank (pJ)
system.mem_ctrls.rank0.refreshEnergy     22641493680.000004                       # Energy for refresh commands per rank (pJ)
system.mem_ctrls.rank0.actBackEnergy      71087698770                       # Energy for active background per rank (pJ)
system.mem_ctrls.rank0.preBackEnergy      50278642560                       # Energy for precharge background per rank (pJ)
system.mem_ctrls.rank0.actPowerDownEnergy            0                       # Energy for active power-down per rank (pJ)
system.mem_ctrls.rank0.prePowerDownEnergy            0                       # Energy for precharge power-down per rank (pJ)
system.mem_ctrls.rank0.selfRefreshEnergy            0                       # Energy for self refresh per rank (pJ)
system.mem_ctrls.rank0.totalEnergy       180775222845                       # Total energy per rank (pJ)
system.mem_ctrls.rank0.averagePower        630.256451                       # Core power per rank (mW)
system.mem_ctrls.rank0.totalIdleTime                0                       # Total Idle time Per DRAM Rank
system.mem_ctrls.rank0.memoryStateTime::IDLE 128166811000                       # Time in different power states
system.mem_ctrls.rank0.memoryStateTime::REF   9577620000                       # Time in different power states
system.mem_ctrls.rank0.memoryStateTime::SREF            0                       # Time in different power states
system.mem_ctrls.rank0.memoryStateTime::PRE_PDN            0                       # Time in different power states
system.mem_ctrls.rank0.memoryStateTime::ACT 149083609500                       # Time in different power states
system.mem_ctrls.rank0.memoryStateTime::ACT_PDN            0                       # Time in different power states
system.cpu_clk_domain.clock                       500                       # Clock period in ticks
system.cpu.pwrStateResidencyTicks::ON    286828040500                       # Cumulative time (in ticks) in various power states
system.cpu.icache.pwrStateResidencyTicks::UNDEFINED 286828040500                       # Cumulative time (in ticks) in various power states
system.cpu.icache.demand_hits::.cpu.inst     31784480                       # number of demand (read+write) hits
system.cpu.icache.demand_hits::total         31784480                       # number of demand (read+write) hits
system.cpu.icache.overall_hits::.cpu.inst     31784480                       # number of overall hits
system.cpu.icache.overall_hits::total        31784480                       # number of overall hits
system.cpu.icache.demand_misses::.cpu.inst          437                       # number of demand (read+write) misses
system.cpu.icache.demand_misses::total            437                       # number of demand (read+write) misses
system.cpu.icache.overall_misses::.cpu.inst          437                       # number of overall misses
system.cpu.icache.overall_misses::total           437                       # number of overall misses
system.cpu.icache.demand_miss_latency::.cpu.inst     31139000                       # number of demand (read+write) miss cycles
system.cpu.icache.demand_miss_latency::total     31139000                       # number of demand (read+write) miss cycles
system.cpu.icache.overall_miss_latency::.cpu.inst     31139000                       # number of overall miss cycles
system.cpu.icache.overall_miss_latency::total     31139000                       # number of overall miss cycles
system.cpu.icache.demand_accesses::.cpu.inst     31784917                       # number of demand (read+write) accesses
system.cpu.icache.demand_accesses::total     31784917                       # number of demand (read+write) accesses
system.cpu.icache.overall_accesses::.cpu.inst     31784917                       # number of overall (read+write) accesses
system.cpu.icache.overall_accesses::total     31784917                       # number of overall (read+write) accesses
system.cpu.icache.demand_miss_rate::.cpu.inst     0.000014                       # miss rate for demand accesses
system.cpu.icache.demand_miss_rate::total     0.000014                       # miss rate for demand accesses
system.cpu.icache.overall_miss_rate::.cpu.inst     0.000014                       # miss rate for overall accesses
system.cpu.icache.overall_miss_rate::total     0.000014                       # miss rate for overall accesses
system.cpu.icache.demand_avg_miss_latency::.cpu.inst 71256.292906                       # average overall miss latency
system.cpu.icache.demand_avg_miss_latency::total 71256.292906                       # average overall miss latency
system.cpu.icache.overall_avg_miss_latency::.cpu.inst 71256.292906                       # average overall miss latency
system.cpu.icache.overall_avg_miss_latency::total 71256.292906                       # average overall miss latency
system.cpu.icache.blocked_cycles::no_mshrs            0                       # number of cycles access was blocked
system.cpu.icache.blocked_cycles::no_targets            0                       # number of cycles access was blocked
system.cpu.icache.blocked::no_mshrs                 0                       # number of cycles access was blocked
system.cpu.icache.blocked::no_targets               0                       # number of cycles access was blocked
system.cpu.icache.avg_blocked_cycles::no_mshrs          nan                       # average number of cycles each access was blocked
system.cpu.icache.avg_blocked_cycles::no_targets          nan                       # average number of cycles each access was blocked
system.cpu.icache.writebacks::.writebacks          208                       # number of writebacks
system.cpu.icache.writebacks::total               208                       # number of writebacks
system.cpu.icache.demand_mshr_misses::.cpu.inst          437                       # number of demand (read+write) MSHR misses
system.cpu.icache.demand_mshr_misses::total          437                       # number of demand (read+write) MSHR misses
system.cpu.icache.overall_mshr_misses::.cpu.inst          437                       # number of overall MSHR misses
system.cpu.icache.overall_mshr_misses::total          437                       # number of overall MSHR misses
system.cpu.icache.demand_mshr_miss_latency::.cpu.inst     30702000                       # number of demand (read+write) MSHR miss cycles
system.cpu.icache.demand_mshr_miss_latency::total     30702000                       # number of demand (read+write) MSHR miss cycles
system.cpu.icache.overall_mshr_miss_latency::.cpu.inst     30702000                       # number of overall MSHR miss cycles
system.cpu.icache.overall_mshr_miss_latency::total     30702000                       # number of overall MSHR miss cycles
system.cpu.icache.demand_mshr_miss_rate::.cpu.inst     0.000014                       # mshr miss rate for demand accesses
system.cpu.icache.demand_mshr_miss_rate::total     0.000014                       # mshr miss rate for demand accesses
system.cpu.icache.overall_mshr_miss_rate::.cpu.inst     0.000014                       # mshr miss rate for overall accesses
system.cpu.icache.overall_mshr_miss_rate::total     0.000014                       # mshr miss rate for overall accesses
system.cpu.icache.demand_avg_mshr_miss_latency::.cpu.inst 70256.292906                       # average overall mshr miss latency
system.cpu.icache.demand_avg_mshr_miss_latency::total 70256.292906                       # average overall mshr miss latency
system.cpu.icache.overall_avg_mshr_miss_latency::.cpu.inst 70256.292906                       # average overall mshr miss latency
system.cpu.icache.overall_avg_mshr_miss_latency::total 70256.292906                       # average overall mshr miss latency
system.cpu.icache.replacements                    208                       # number of replacements
system.cpu.icache.ReadReq_hits::.cpu.inst     31784480                       # number of ReadReq hits
system.cpu.icache.ReadReq_hits::total        31784480                       # number of ReadReq hits
system.cpu.icache.ReadReq_misses::.cpu.inst          437                       # number of ReadReq misses
system.cpu.icache.ReadReq_misses::total           437                       # number of ReadReq misses
system.cpu.icache.ReadReq_miss_latency::.cpu.inst     31139000                       # number of ReadReq miss cycles
system.cpu.icache.ReadReq_miss_latency::total     31139000                       # number of ReadReq miss cycles
system.cpu.icache.ReadReq_accesses::.cpu.inst     31784917                       # number of ReadReq accesses(hits+misses)
system.cpu.icache.ReadReq_accesses::total     31784917                       # number of ReadReq accesses(hits+misses)
system.cpu.icache.ReadReq_miss_rate::.cpu.inst     0.000014                       # miss rate for ReadReq accesses
system.cpu.icache.ReadReq_miss_rate::total     0.000014                       # miss rate for ReadReq accesses
system.cpu.icache.ReadReq_avg_miss_latency::.cpu.inst 71256.292906                       # average ReadReq miss latency
system.cpu.icache.ReadReq_avg_miss_latency::total 71256.292906                       # average ReadReq miss latency
system.cpu.icache.ReadReq_mshr_misses::.cpu.inst          437                       # number of ReadReq MSHR misses
system.cpu.icache.ReadReq_mshr_misses::total          437                       # number of ReadReq MSHR misses
system.cpu.icache.ReadReq_mshr_miss_latency::.cpu.inst     30702000                       # number of ReadReq MSHR miss cycles
system.cpu.icache.ReadReq_mshr_miss_latency::total     30702000                       # number of ReadReq MSHR miss cycles
system.cpu.icache.ReadReq_mshr_miss_rate::.cpu.inst     0.000014                       # mshr miss rate for ReadReq accesses
system.cpu.icache.ReadReq_mshr_miss_rate::total     0.000014                       # mshr miss rate for ReadReq accesses
system.cpu.icache.ReadReq_avg_mshr_miss_latency::.cpu.inst 70256.292906                       # average ReadReq mshr miss latency
system.cpu.icache.ReadReq_avg_mshr_miss_latency::total 70256.292906                       # average ReadReq mshr miss latency
system.cpu.icache.tags.pwrStateResidencyTicks::UNDEFINED 286828040500                       # Cumulative time (in ticks) in various power states
system.cpu.icache.tags.tagsinuse           211.526577                       # Cycle average of tags in use
system.cpu.icache.tags.total_refs            31784917                       # Total number of references to valid blocks.
system.cpu.icache.tags.sampled_refs               437                       # Sample count of references to valid blocks.
system.cpu.icache.tags.avg_refs          72734.363844                       # Average number of references to valid blocks.
system.cpu.icache.tags.warmup_cycle             82000                       # Cycle when the warmup percentage was hit.
system.cpu.icache.tags.occ_blocks::.cpu.inst   211.526577                       # Average occupied blocks per requestor
system.cpu.icache.tags.occ_percent::.cpu.inst     0.826276                       # Average percentage of cache occupancy
system.cpu.icache.tags.occ_percent::total     0.826276                       # Average percentage of cache occupancy
system.cpu.icache.tags.occ_task_id_blocks::1024          229                       # Occupied blocks per task id
system.cpu.icache.tags.age_task_id_blocks_1024::4          229                       # Occupied blocks per task id
system.cpu.icache.tags.occ_task_id_percent::1024     0.894531                       # Percentage of cache occupancy per task id
system.cpu.icache.tags.tag_accesses          63570271                       # Number of tag accesses
system.cpu.icache.tags.data_accesses         63570271                       # Number of data accesses
system.cpu.dtb.walker.pwrStateResidencyTicks::UNDEFINED 286828040500                       # Cumulative time (in ticks) in various power states
system.cpu.dtb.stage2_mmu.stage2_tlb.walker.pwrStateResidencyTicks::UNDEFINED 286828040500                       # Cumulative time (in ticks) in various power states
system.cpu.dcache.pwrStateResidencyTicks::UNDEFINED 286828040500                       # Cumulative time (in ticks) in various power states
system.cpu.dcache.demand_hits::.cpu.data     81122554                       # number of demand (read+write) hits
system.cpu.dcache.demand_hits::total         81122554                       # number of demand (read+write) hits
system.cpu.dcache.overall_hits::.cpu.data     81122588                       # number of overall hits
system.cpu.dcache.overall_hits::total        81122588                       # number of overall hits
system.cpu.dcache.demand_misses::.cpu.data      5262359                       # number of demand (read+write) misses
system.cpu.dcache.demand_misses::total        5262359                       # number of demand (read+write) misses
system.cpu.dcache.overall_misses::.cpu.data      5262372                       # number of overall misses
system.cpu.dcache.overall_misses::total       5262372                       # number of overall misses
system.cpu.dcache.demand_miss_latency::.cpu.data 408669301500                       # number of demand (read+write) miss cycles
system.cpu.dcache.demand_miss_latency::total 408669301500                       # number of demand (read+write) miss cycles
system.cpu.dcache.overall_miss_latency::.cpu.data 408669301500                       # number of overall miss cycles
system.cpu.dcache.overall_miss_latency::total 408669301500                       # number of overall miss cycles
system.cpu.dcache.demand_accesses::.cpu.data     86384913                       # number of demand (read+write) accesses
system.cpu.dcache.demand_accesses::total     86384913                       # number of demand (read+write) accesses
system.cpu.dcache.overall_accesses::.cpu.data     86384960                       # number of overall (read+write) accesses
system.cpu.dcache.overall_accesses::total     86384960                       # number of overall (read+write) accesses
system.cpu.dcache.demand_miss_rate::.cpu.data     0.060918                       # miss rate for demand accesses
system.cpu.dcache.demand_miss_rate::total     0.060918                       # miss rate for demand accesses
system.cpu.dcache.overall_miss_rate::.cpu.data     0.060918                       # miss rate for overall accesses
system.cpu.dcache.overall_miss_rate::total     0.060918                       # miss rate for overall accesses
system.cpu.dcache.demand_avg_miss_latency::.cpu.data 77658.955138                       # average overall miss latency
system.cpu.dcache.demand_avg_miss_latency::total 77658.955138                       # average overall miss latency
system.cpu.dcache.overall_avg_miss_latency::.cpu.data 77658.763292                       # average overall miss latency
system.cpu.dcache.overall_avg_miss_latency::total 77658.763292                       # average overall miss latency
system.cpu.dcache.blocked_cycles::no_mshrs            0                       # number of cycles access was blocked
system.cpu.dcache.blocked_cycles::no_targets            0                       # number of cycles access was blocked
system.cpu.dcache.blocked::no_mshrs                 0                       # number of cycles access was blocked
system.cpu.dcache.blocked::no_targets               0                       # number of cycles access was blocked
system.cpu.dcache.avg_blocked_cycles::no_mshrs          nan                       # average number of cycles each access was blocked
system.cpu.dcache.avg_blocked_cycles::no_targets          nan                       # average number of cycles each access was blocked
system.cpu.dcache.writebacks::.writebacks      2630761                       # number of writebacks
system.cpu.dcache.writebacks::total           2630761                       # number of writebacks
system.cpu.dcache.demand_mshr_hits::.cpu.data      2630390                       # number of demand (read+write) MSHR hits
system.cpu.dcache.demand_mshr_hits::total      2630390                       # number of demand (read+write) MSHR hits
system.cpu.dcache.overall_mshr_hits::.cpu.data      2630390                       # number of overall MSHR hits
system.cpu.dcache.overall_mshr_hits::total      2630390                       # number of overall MSHR hits
system.cpu.dcache.demand_mshr_misses::.cpu.data      2631969                       # number of demand (read+write) MSHR misses
system.cpu.dcache.demand_mshr_misses::total      2631969                       # number of demand (read+write) MSHR misses
system.cpu.dcache.overall_mshr_misses::.cpu.data      2631977                       # number of overall MSHR misses
system.cpu.dcache.overall_mshr_misses::total      2631977                       # number of overall MSHR misses
system.cpu.dcache.demand_mshr_miss_latency::.cpu.data 191897628500                       # number of demand (read+write) MSHR miss cycles
system.cpu.dcache.demand_mshr_miss_latency::total 191897628500                       # number of demand (read+write) MSHR miss cycles
system.cpu.dcache.overall_mshr_miss_latency::.cpu.data 191898284500                       # number of overall MSHR miss cycles
system.cpu.dcache.overall_mshr_miss_latency::total 191898284500                       # number of overall MSHR miss cycles
system.cpu.dcache.demand_mshr_miss_rate::.cpu.data     0.030468                       # mshr miss rate for demand accesses
system.cpu.dcache.demand_mshr_miss_rate::total     0.030468                       # mshr miss rate for demand accesses
system.cpu.dcache.overall_mshr_miss_rate::.cpu.data     0.030468                       # mshr miss rate for overall accesses
system.cpu.dcache.overall_mshr_miss_rate::total     0.030468                       # mshr miss rate for overall accesses
system.cpu.dcache.demand_avg_mshr_miss_latency::.cpu.data 72910.292067                       # average overall mshr miss latency
system.cpu.dcache.demand_avg_mshr_miss_latency::total 72910.292067                       # average overall mshr miss latency
system.cpu.dcache.overall_avg_mshr_miss_latency::.cpu.data 72910.319695                       # average overall mshr miss latency
system.cpu.dcache.overall_avg_mshr_miss_latency::total 72910.319695                       # average overall mshr miss latency
system.cpu.dcache.replacements                2630954                       # number of replacements
system.cpu.dcache.ReadReq_hits::.cpu.data      2043404                       # number of ReadReq hits
system.cpu.dcache.ReadReq_hits::total         2043404                       # number of ReadReq hits
system.cpu.dcache.ReadReq_misses::.cpu.data          229                       # number of ReadReq misses
system.cpu.dcache.ReadReq_misses::total           229                       # number of ReadReq misses
system.cpu.dcache.ReadReq_miss_latency::.cpu.data     17783000                       # number of ReadReq miss cycles
system.cpu.dcache.ReadReq_miss_latency::total     17783000                       # number of ReadReq miss cycles
system.cpu.dcache.ReadReq_accesses::.cpu.data      2043633                       # number of ReadReq accesses(hits+misses)
system.cpu.dcache.ReadReq_accesses::total      2043633                       # number of ReadReq accesses(hits+misses)
system.cpu.dcache.ReadReq_miss_rate::.cpu.data     0.000112                       # miss rate for ReadReq accesses
system.cpu.dcache.ReadReq_miss_rate::total     0.000112                       # miss rate for ReadReq accesses
system.cpu.dcache.ReadReq_avg_miss_latency::.cpu.data 77655.021834                       # average ReadReq miss latency
system.cpu.dcache.ReadReq_avg_miss_latency::total 77655.021834                       # average ReadReq miss latency
system.cpu.dcache.ReadReq_mshr_hits::.cpu.data           19                       # number of ReadReq MSHR hits
system.cpu.dcache.ReadReq_mshr_hits::total           19                       # number of ReadReq MSHR hits
system.cpu.dcache.ReadReq_mshr_misses::.cpu.data          210                       # number of ReadReq MSHR misses
system.cpu.dcache.ReadReq_mshr_misses::total          210                       # number of ReadReq MSHR misses
system.cpu.dcache.ReadReq_mshr_miss_latency::.cpu.data     16057500                       # number of ReadReq MSHR miss cycles
system.cpu.dcache.ReadReq_mshr_miss_latency::total     16057500                       # number of ReadReq MSHR miss cycles
system.cpu.dcache.ReadReq_mshr_miss_rate::.cpu.data     0.000103                       # mshr miss rate for ReadReq accesses
system.cpu.dcache.ReadReq_mshr_miss_rate::total     0.000103                       # mshr miss rate for ReadReq accesses
system.cpu.dcache.ReadReq_avg_mshr_miss_latency::.cpu.data 76464.285714                       # average ReadReq mshr miss latency
system.cpu.dcache.ReadReq_avg_mshr_miss_latency::total 76464.285714                       # average ReadReq mshr miss latency
system.cpu.dcache.WriteReq_hits::.cpu.data     79079150                       # number of WriteReq hits
system.cpu.dcache.WriteReq_hits::total       79079150                       # number of WriteReq hits
system.cpu.dcache.WriteReq_misses::.cpu.data      5262130                       # number of WriteReq misses
system.cpu.dcache.WriteReq_misses::total      5262130                       # number of WriteReq misses
system.cpu.dcache.WriteReq_miss_latency::.cpu.data 408651518500                       # number of WriteReq miss cycles
system.cpu.dcache.WriteReq_miss_latency::total 408651518500                       # number of WriteReq miss cycles
system.cpu.dcache.WriteReq_accesses::.cpu.data     84341280                       # number of WriteReq accesses(hits+misses)
system.cpu.dcache.WriteReq_accesses::total     84341280                       # number of WriteReq accesses(hits+misses)
system.cpu.dcache.WriteReq_miss_rate::.cpu.data     0.062391                       # miss rate for WriteReq accesses
system.cpu.dcache.WriteReq_miss_rate::total     0.062391                       # miss rate for WriteReq accesses
system.cpu.dcache.WriteReq_avg_miss_latency::.cpu.data 77658.955309                       # average WriteReq miss latency
system.cpu.dcache.WriteReq_avg_miss_latency::total 77658.955309                       # average WriteReq miss latency
system.cpu.dcache.WriteReq_mshr_hits::.cpu.data      2630371                       # number of WriteReq MSHR hits
system.cpu.dcache.WriteReq_mshr_hits::total      2630371                       # number of WriteReq MSHR hits
system.cpu.dcache.WriteReq_mshr_misses::.cpu.data      2631759                       # number of WriteReq MSHR misses
system.cpu.dcache.WriteReq_mshr_misses::total      2631759                       # number of WriteReq MSHR misses
system.cpu.dcache.WriteReq_mshr_miss_latency::.cpu.data 191881571000                       # number of WriteReq MSHR miss cycles
system.cpu.dcache.WriteReq_mshr_miss_latency::total 191881571000                       # number of WriteReq MSHR miss cycles
system.cpu.dcache.WriteReq_mshr_miss_rate::.cpu.data     0.031204                       # mshr miss rate for WriteReq accesses
system.cpu.dcache.WriteReq_mshr_miss_rate::total     0.031204                       # mshr miss rate for WriteReq accesses
system.cpu.dcache.WriteReq_avg_mshr_miss_latency::.cpu.data 72910.008477                       # average WriteReq mshr miss latency
system.cpu.dcache.WriteReq_avg_mshr_miss_latency::total 72910.008477                       # average WriteReq mshr miss latency
system.cpu.dcache.SoftPFReq_hits::.cpu.data           34                       # number of SoftPFReq hits
system.cpu.dcache.SoftPFReq_hits::total            34                       # number of SoftPFReq hits
system.cpu.dcache.SoftPFReq_misses::.cpu.data           13                       # number of SoftPFReq misses
system.cpu.dcache.SoftPFReq_misses::total           13                       # number of SoftPFReq misses
system.cpu.dcache.SoftPFReq_accesses::.cpu.data           47                       # number of SoftPFReq accesses(hits+misses)
system.cpu.dcache.SoftPFReq_accesses::total           47                       # number of SoftPFReq accesses(hits+misses)
system.cpu.dcache.SoftPFReq_miss_rate::.cpu.data     0.276596                       # miss rate for SoftPFReq accesses
system.cpu.dcache.SoftPFReq_miss_rate::total     0.276596                       # miss rate for SoftPFReq accesses
system.cpu.dcache.SoftPFReq_mshr_misses::.cpu.data            8                       # number of SoftPFReq MSHR misses
system.cpu.dcache.SoftPFReq_mshr_misses::total            8                       # number of SoftPFReq MSHR misses
system.cpu.dcache.SoftPFReq_mshr_miss_latency::.cpu.data       656000                       # number of SoftPFReq MSHR miss cycles
system.cpu.dcache.SoftPFReq_mshr_miss_latency::total       656000                       # number of SoftPFReq MSHR miss cycles
system.cpu.dcache.SoftPFReq_mshr_miss_rate::.cpu.data     0.170213                       # mshr miss rate for SoftPFReq accesses
system.cpu.dcache.SoftPFReq_mshr_miss_rate::total     0.170213                       # mshr miss rate for SoftPFReq accesses
system.cpu.dcache.SoftPFReq_avg_mshr_miss_latency::.cpu.data        82000                       # average SoftPFReq mshr miss latency
system.cpu.dcache.SoftPFReq_avg_mshr_miss_latency::total        82000                       # average SoftPFReq mshr miss latency
system.cpu.dcache.LoadLockedReq_hits::.cpu.data           49                       # number of LoadLockedReq hits
system.cpu.dcache.LoadLockedReq_hits::total           49                       # number of LoadLockedReq hits
system.cpu.dcache.LoadLockedReq_misses::.cpu.data            1                       # number of LoadLockedReq misses
system.cpu.dcache.LoadLockedReq_misses::total            1                       # number of LoadLockedReq misses
system.cpu.dcache.LoadLockedReq_miss_latency::.cpu.data        63000                       # number of LoadLockedReq miss cycles
system.cpu.dcache.LoadLockedReq_miss_latency::total        63000                       # number of LoadLockedReq miss cycles
system.cpu.dcache.LoadLockedReq_accesses::.cpu.data           50                       # number of LoadLockedReq accesses(hits+misses)
system.cpu.dcache.LoadLockedReq_accesses::total           50                       # number of LoadLockedReq accesses(hits+misses)
system.cpu.dcache.LoadLockedReq_miss_rate::.cpu.data     0.020000                       # miss rate for LoadLockedReq accesses
system.cpu.dcache.LoadLockedReq_miss_rate::total     0.020000                       # miss rate for LoadLockedReq accesses
system.cpu.dcache.LoadLockedReq_avg_miss_latency::.cpu.data        63000                       # average LoadLockedReq miss latency
system.cpu.dcache.LoadLockedReq_avg_miss_latency::total        63000                       # average LoadLockedReq miss latency
system.cpu.dcache.LoadLockedReq_mshr_misses::.cpu.data            1                       # number of LoadLockedReq MSHR misses
system.cpu.dcache.LoadLockedReq_mshr_misses::total            1                       # number of LoadLockedReq MSHR misses
system.cpu.dcache.LoadLockedReq_mshr_miss_latency::.cpu.data        62000                       # number of LoadLockedReq MSHR miss cycles
system.cpu.dcache.LoadLockedReq_mshr_miss_latency::total        62000                       # number of LoadLockedReq MSHR miss cycles
system.cpu.dcache.LoadLockedReq_mshr_miss_rate::.cpu.data     0.020000                       # mshr miss rate for LoadLockedReq accesses
system.cpu.dcache.LoadLockedReq_mshr_miss_rate::total     0.020000                       # mshr miss rate for LoadLockedReq accesses
system.cpu.dcache.LoadLockedReq_avg_mshr_miss_latency::.cpu.data        62000                       # average LoadLockedReq mshr miss latency
system.cpu.dcache.LoadLockedReq_avg_mshr_miss_latency::total        62000                       # average LoadLockedReq mshr miss latency
system.cpu.dcache.StoreCondReq_hits::.cpu.data           50                       # number of StoreCondReq hits
system.cpu.dcache.StoreCondReq_hits::total           50                       # number of StoreCondReq hits
system.cpu.dcache.StoreCondReq_accesses::.cpu.data           50                       # number of StoreCondReq accesses(hits+misses)
system.cpu.dcache.StoreCondReq_accesses::total           50                       # number of StoreCondReq accesses(hits+misses)
system.cpu.dcache.tags.pwrStateResidencyTicks::UNDEFINED 286828040500                       # Cumulative time (in ticks) in various power states
system.cpu.dcache.tags.tagsinuse          1022.442417                       # Cycle average of tags in use
system.cpu.dcache.tags.total_refs            83754665                       # Total number of references to valid blocks.
system.cpu.dcache.tags.sampled_refs           2631978                       # Sample count of references to valid blocks.
system.cpu.dcache.tags.avg_refs             31.821947                       # Average number of references to valid blocks.
system.cpu.dcache.tags.warmup_cycle            155000                       # Cycle when the warmup percentage was hit.
system.cpu.dcache.tags.occ_blocks::.cpu.data  1022.442417                       # Average occupied blocks per requestor
system.cpu.dcache.tags.occ_percent::.cpu.data     0.998479                       # Average percentage of cache occupancy
system.cpu.dcache.tags.occ_percent::total     0.998479                       # Average percentage of cache occupancy
system.cpu.dcache.tags.occ_task_id_blocks::1024         1024                       # Occupied blocks per task id
system.cpu.dcache.tags.age_task_id_blocks_1024::0           93                       # Occupied blocks per task id
system.cpu.dcache.tags.age_task_id_blocks_1024::1          831                       # Occupied blocks per task id
system.cpu.dcache.tags.age_task_id_blocks_1024::2          100                       # Occupied blocks per task id
system.cpu.dcache.tags.occ_task_id_percent::1024            1                       # Percentage of cache occupancy per task id
system.cpu.dcache.tags.tag_accesses         693712458                       # Number of tag accesses
system.cpu.dcache.tags.data_accesses        693712458                       # Number of data accesses
system.cpu.itb.walker.pwrStateResidencyTicks::UNDEFINED 286828040500                       # Cumulative time (in ticks) in various power states
system.cpu.itb.stage2_mmu.stage2_tlb.walker.pwrStateResidencyTicks::UNDEFINED 286828040500                       # Cumulative time (in ticks) in various power states

---------- End Simulation Statistics   ----------
