
---------- Begin Simulation Statistics ----------
final_tick                               384036164000                       # Number of ticks from beginning of simulation (restored from checkpoints and never reset)
host_inst_rate                                 209042                       # Simulator instruction rate (inst/s)
host_mem_usage                                 699912                       # Number of bytes of host memory used
host_op_rate                                   385012                       # Simulator op (including micro ops) rate (op/s)
host_seconds                                   478.37                       # Real time elapsed on the host
host_tick_rate                              802796123                       # Simulator tick rate (ticks/s)
sim_freq                                 1000000000000                       # Frequency of simulated ticks
sim_insts                                   100000001                       # Number of instructions simulated
sim_ops                                     184179363                       # Number of ops (including micro ops) simulated
sim_seconds                                  0.384036                       # Number of seconds simulated
sim_ticks                                384036164000                       # Number of ticks simulated
system.cpu.branchPred.BTBCorrect                    0                       # Number of correct BTB predictions (this stat may not work properly.
system.cpu.branchPred.BTBHitPct             99.958271                       # BTB Hit Percentage
system.cpu.branchPred.BTBHits                10561373                       # Number of BTB hits
system.cpu.branchPred.BTBLookups             10565782                       # Number of BTB lookups
system.cpu.branchPred.RASInCorrect                  6                       # Number of incorrect RAS predictions.
system.cpu.branchPred.condIncorrect              1366                       # Number of conditional branches incorrect
system.cpu.branchPred.condPredicted          10562284                       # Number of conditional branches predicted
system.cpu.branchPred.indirectHits                 16                       # Number of indirect target hits.
system.cpu.branchPred.indirectLookups             151                       # Number of indirect predictor lookups.
system.cpu.branchPred.indirectMisses              135                       # Number of indirect misses.
system.cpu.branchPred.lookups                10570327                       # Number of BP lookups
system.cpu.branchPred.usedRAS                    2672                       # Number of times the RAS was used to get a target.
system.cpu.branchPredindirectMispredicted           89                       # Number of mispredicted indirect branches.
system.cpu.committedInsts                   100000001                       # Number of instructions committed
system.cpu.committedOps                     184179363                       # Number of ops (including micro ops) committed
system.cpu.cpi                               3.840362                       # CPI: cycles per instruction
system.cpu.discardedOps                          3939                       # Number of ops (including micro ops) which were discarded before commit
system.cpu.dtb.accesses                             0                       # DTB accesses
system.cpu.dtb.align_faults                         0                       # Number of TLB faults due to alignment restrictions
system.cpu.dtb.domain_faults                        0                       # Number of TLB faults due to domain restrictions
system.cpu.dtb.flush_entries                        0                       # Number of entries that have been flushed from TLB
system.cpu.dtb.flush_tlb                            0                       # Number of times complete TLB was flushed
system.cpu.dtb.flush_tlb_asid                       0                       # Number of times TLB was flushed by ASID
system.cpu.dtb.flush_tlb_mva                        0                       # Number of times TLB was flushed by MVA
system.cpu.dtb.flush_tlb_mva_asid                   0                       # Number of times TLB was flushed by MVA & ASID
system.cpu.dtb.hits                                 0                       # DTB hits
system.cpu.dtb.inst_accesses                        0                       # ITB inst accesses
system.cpu.dtb.inst_hits                            0                       # ITB inst hits
system.cpu.dtb.inst_misses                          0                       # ITB inst misses
system.cpu.dtb.misses                               0                       # DTB misses
system.cpu.dtb.perms_faults                         0                       # Number of TLB faults due to permissions restrictions
system.cpu.dtb.prefetch_faults                      0                       # Number of TLB faults due to prefetch
system.cpu.dtb.read_accesses                        0                       # DTB read accesses
system.cpu.dtb.read_hits                            0                       # DTB read hits
system.cpu.dtb.read_misses                          0                       # DTB read misses
system.cpu.dtb.stage2_mmu.stage2_tlb.accesses            0                       # DTB accesses
system.cpu.dtb.stage2_mmu.stage2_tlb.align_faults            0                       # Number of TLB faults due to alignment restrictions
system.cpu.dtb.stage2_mmu.stage2_tlb.domain_faults            0                       # Number of TLB faults due to domain restrictions
system.cpu.dtb.stage2_mmu.stage2_tlb.flush_entries            0                       # Number of entries that have been flushed from TLB
system.cpu.dtb.stage2_mmu.stage2_tlb.flush_tlb            0                       # Number of times complete TLB was flushed
system.cpu.dtb.stage2_mmu.stage2_tlb.flush_tlb_asid            0                       # Number of times TLB was flushed by ASID
system.cpu.dtb.stage2_mmu.stage2_tlb.flush_tlb_mva            0                       # Number of times TLB was flushed by MVA
system.cpu.dtb.stage2_mmu.stage2_tlb.flush_tlb_mva_asid            0                       # Number of times TLB was flushed by MVA & ASID
system.cpu.dtb.stage2_mmu.stage2_tlb.hits            0                       # DTB hits
system.cpu.dtb.stage2_mmu.stage2_tlb.inst_accesses            0                       # ITB inst accesses
system.cpu.dtb.stage2_mmu.stage2_tlb.inst_hits            0                       # ITB inst hits
system.cpu.dtb.stage2_mmu.stage2_tlb.inst_misses            0                       # ITB inst misses
system.cpu.dtb.stage2_mmu.stage2_tlb.misses            0                       # DTB misses
system.cpu.dtb.stage2_mmu.stage2_tlb.perms_faults            0                       # Number of TLB faults due to permissions restrictions
system.cpu.dtb.stage2_mmu.stage2_tlb.prefetch_faults            0                       # Number of TLB faults due to prefetch
system.cpu.dtb.stage2_mmu.stage2_tlb.read_accesses            0                       # DTB read accesses
system.cpu.dtb.stage2_mmu.stage2_tlb.read_hits            0                       # DTB read hits
system.cpu.dtb.stage2_mmu.stage2_tlb.read_misses            0                       # DTB read misses
system.cpu.dtb.stage2_mmu.stage2_tlb.walker.walkRequestOrigin_Requested::Data            0                       # Table walker requests started/completed, data/inst
system.cpu.dtb.stage2_mmu.stage2_tlb.walker.walkRequestOrigin_Requested::Inst            0                       # Table walker requests started/completed, data/inst
system.cpu.dtb.stage2_mmu.stage2_tlb.walker.walkRequestOrigin_Requested::total            0                       # Table walker requests started/completed, data/inst
system.cpu.dtb.stage2_mmu.stage2_tlb.walker.walkRequestOrigin_Completed::Data            0                       # Table walker requests started/completed, data/inst
system.cpu.dtb.stage2_mmu.stage2_tlb.walker.walkRequestOrigin_Completed::Inst            0                       # Table walker requests started/completed, data/inst
system.cpu.dtb.stage2_mmu.stage2_tlb.walker.walkRequestOrigin_Completed::total            0                       # Table walker requests started/completed, data/inst
system.cpu.dtb.stage2_mmu.stage2_tlb.walker.walkRequestOrigin::total            0                       # Table walker requests started/completed, data/inst
system.cpu.dtb.stage2_mmu.stage2_tlb.walker.walks            0                       # Table walker walks requested
system.cpu.dtb.stage2_mmu.stage2_tlb.write_accesses            0                       # DTB write accesses
system.cpu.dtb.stage2_mmu.stage2_tlb.write_hits            0                       # DTB write hits
system.cpu.dtb.stage2_mmu.stage2_tlb.write_misses            0                       # DTB write misses
system.cpu.dtb.walker.walkRequestOrigin_Requested::Data            0                       # Table walker requests started/completed, data/inst
system.cpu.dtb.walker.walkRequestOrigin_Requested::Inst            0                       # Table walker requests started/completed, data/inst
system.cpu.dtb.walker.walkRequestOrigin_Requested::total            0                       # Table walker requests started/completed, data/inst
system.cpu.dtb.walker.walkRequestOrigin_Completed::Data            0                       # Table walker requests started/completed, data/inst
system.cpu.dtb.walker.walkRequestOrigin_Completed::Inst            0                       # Table walker requests started/completed, data/inst
system.cpu.dtb.walker.walkRequestOrigin_Completed::total            0                       # Table walker requests started/completed, data/inst
system.cpu.dtb.walker.walkRequestOrigin::total            0                       # Table walker requests started/completed, data/inst
system.cpu.dtb.walker.walks                         0                       # Table walker walks requested
system.cpu.dtb.write_accesses                       0                       # DTB write accesses
system.cpu.dtb.write_hits                           0                       # DTB write hits
system.cpu.dtb.write_misses                         0                       # DTB write misses
system.cpu.fetch2.amo_instructions                  0                       # Number of memory atomic instructions successfully decoded
system.cpu.fetch2.fp_instructions                   0                       # Number of floating point instructions successfully decoded
system.cpu.fetch2.int_instructions           44891441                       # Number of integer instructions successfully decoded
system.cpu.fetch2.load_instructions           2086235                       # Number of memory load instructions successfully decoded
system.cpu.fetch2.store_instructions           169215                       # Number of memory store instructions successfully decoded
system.cpu.fetch2.vec_instructions                  0                       # Number of SIMD instructions successfully decoded
system.cpu.idleCycles                       165455429                       # Total number of cycles that the object has spent stopped
system.cpu.ipc                               0.260392                       # IPC: instructions per cycle
system.cpu.itb.accesses                             0                       # DTB accesses
system.cpu.itb.align_faults                         0                       # Number of TLB faults due to alignment restrictions
system.cpu.itb.domain_faults                        0                       # Number of TLB faults due to domain restrictions
system.cpu.itb.flush_entries                        0                       # Number of entries that have been flushed from TLB
system.cpu.itb.flush_tlb                            0                       # Number of times complete TLB was flushed
system.cpu.itb.flush_tlb_asid                       0                       # Number of times TLB was flushed by ASID
system.cpu.itb.flush_tlb_mva                        0                       # Number of times TLB was flushed by MVA
system.cpu.itb.flush_tlb_mva_asid                   0                       # Number of times TLB was flushed by MVA & ASID
system.cpu.itb.hits                                 0                       # DTB hits
system.cpu.itb.inst_accesses                        0                       # ITB inst accesses
system.cpu.itb.inst_hits                            0                       # ITB inst hits
system.cpu.itb.inst_misses                          0                       # ITB inst misses
system.cpu.itb.misses                               0                       # DTB misses
system.cpu.itb.perms_faults                         0                       # Number of TLB faults due to permissions restrictions
system.cpu.itb.prefetch_faults                      0                       # Number of TLB faults due to prefetch
system.cpu.itb.read_accesses                        0                       # DTB read accesses
system.cpu.itb.read_hits                            0                       # DTB read hits
system.cpu.itb.read_misses                          0                       # DTB read misses
system.cpu.itb.stage2_mmu.stage2_tlb.accesses            0                       # DTB accesses
system.cpu.itb.stage2_mmu.stage2_tlb.align_faults            0                       # Number of TLB faults due to alignment restrictions
system.cpu.itb.stage2_mmu.stage2_tlb.domain_faults            0                       # Number of TLB faults due to domain restrictions
system.cpu.itb.stage2_mmu.stage2_tlb.flush_entries            0                       # Number of entries that have been flushed from TLB
system.cpu.itb.stage2_mmu.stage2_tlb.flush_tlb            0                       # Number of times complete TLB was flushed
system.cpu.itb.stage2_mmu.stage2_tlb.flush_tlb_asid            0                       # Number of times TLB was flushed by ASID
system.cpu.itb.stage2_mmu.stage2_tlb.flush_tlb_mva            0                       # Number of times TLB was flushed by MVA
system.cpu.itb.stage2_mmu.stage2_tlb.flush_tlb_mva_asid            0                       # Number of times TLB was flushed by MVA & ASID
system.cpu.itb.stage2_mmu.stage2_tlb.hits            0                       # DTB hits
system.cpu.itb.stage2_mmu.stage2_tlb.inst_accesses            0                       # ITB inst accesses
system.cpu.itb.stage2_mmu.stage2_tlb.inst_hits            0                       # ITB inst hits
system.cpu.itb.stage2_mmu.stage2_tlb.inst_misses            0                       # ITB inst misses
system.cpu.itb.stage2_mmu.stage2_tlb.misses            0                       # DTB misses
system.cpu.itb.stage2_mmu.stage2_tlb.perms_faults            0                       # Number of TLB faults due to permissions restrictions
system.cpu.itb.stage2_mmu.stage2_tlb.prefetch_faults            0                       # Number of TLB faults due to prefetch
system.cpu.itb.stage2_mmu.stage2_tlb.read_accesses            0                       # DTB read accesses
system.cpu.itb.stage2_mmu.stage2_tlb.read_hits            0                       # DTB read hits
system.cpu.itb.stage2_mmu.stage2_tlb.read_misses            0                       # DTB read misses
system.cpu.itb.stage2_mmu.stage2_tlb.walker.walkRequestOrigin_Requested::Data            0                       # Table walker requests started/completed, data/inst
system.cpu.itb.stage2_mmu.stage2_tlb.walker.walkRequestOrigin_Requested::Inst            0                       # Table walker requests started/completed, data/inst
system.cpu.itb.stage2_mmu.stage2_tlb.walker.walkRequestOrigin_Requested::total            0                       # Table walker requests started/completed, data/inst
system.cpu.itb.stage2_mmu.stage2_tlb.walker.walkRequestOrigin_Completed::Data            0                       # Table walker requests started/completed, data/inst
system.cpu.itb.stage2_mmu.stage2_tlb.walker.walkRequestOrigin_Completed::Inst            0                       # Table walker requests started/completed, data/inst
system.cpu.itb.stage2_mmu.stage2_tlb.walker.walkRequestOrigin_Completed::total            0                       # Table walker requests started/completed, data/inst
system.cpu.itb.stage2_mmu.stage2_tlb.walker.walkRequestOrigin::total            0                       # Table walker requests started/completed, data/inst
system.cpu.itb.stage2_mmu.stage2_tlb.walker.walks            0                       # Table walker walks requested
system.cpu.itb.stage2_mmu.stage2_tlb.write_accesses            0                       # DTB write accesses
system.cpu.itb.stage2_mmu.stage2_tlb.write_hits            0                       # DTB write hits
system.cpu.itb.stage2_mmu.stage2_tlb.write_misses            0                       # DTB write misses
system.cpu.itb.walker.walkRequestOrigin_Requested::Data            0                       # Table walker requests started/completed, data/inst
system.cpu.itb.walker.walkRequestOrigin_Requested::Inst            0                       # Table walker requests started/completed, data/inst
system.cpu.itb.walker.walkRequestOrigin_Requested::total            0                       # Table walker requests started/completed, data/inst
system.cpu.itb.walker.walkRequestOrigin_Completed::Data            0                       # Table walker requests started/completed, data/inst
system.cpu.itb.walker.walkRequestOrigin_Completed::Inst            0                       # Table walker requests started/completed, data/inst
system.cpu.itb.walker.walkRequestOrigin_Completed::total            0                       # Table walker requests started/completed, data/inst
system.cpu.itb.walker.walkRequestOrigin::total            0                       # Table walker requests started/completed, data/inst
system.cpu.itb.walker.walks                         0                       # Table walker walks requested
system.cpu.itb.write_accesses                       0                       # DTB write accesses
system.cpu.itb.write_hits                           0                       # DTB write hits
system.cpu.itb.write_misses                         0                       # DTB write misses
system.cpu.numCycles                        384036164                       # number of cpu cycles simulated
system.cpu.numFetchSuspends                         0                       # Number of times Execute suspended instruction fetching
system.cpu.numWorkItemsCompleted                    0                       # number of work items this cpu completed
system.cpu.numWorkItemsStarted                      0                       # number of work items this cpu started
system.cpu.op_class_0::No_OpClass                   0      0.00%      0.00% # Class of committed instruction
system.cpu.op_class_0::IntAlu                97640740     53.01%     53.01% # Class of committed instruction
system.cpu.op_class_0::IntMult                 114661      0.06%     53.08% # Class of committed instruction
system.cpu.op_class_0::IntDiv                       0      0.00%     53.08% # Class of committed instruction
system.cpu.op_class_0::FloatAdd                     0      0.00%     53.08% # Class of committed instruction
system.cpu.op_class_0::FloatCmp                     0      0.00%     53.08% # Class of committed instruction
system.cpu.op_class_0::FloatCvt                     0      0.00%     53.08% # Class of committed instruction
system.cpu.op_class_0::FloatMult                    0      0.00%     53.08% # Class of committed instruction
system.cpu.op_class_0::FloatMultAcc                 0      0.00%     53.08% # Class of committed instruction
system.cpu.op_class_0::FloatDiv                     0      0.00%     53.08% # Class of committed instruction
system.cpu.op_class_0::FloatMisc                    0      0.00%     53.08% # Class of committed instruction
system.cpu.op_class_0::FloatSqrt                    0      0.00%     53.08% # Class of committed instruction
system.cpu.op_class_0::SimdAdd                      0      0.00%     53.08% # Class of committed instruction
system.cpu.op_class_0::SimdAddAcc                   0      0.00%     53.08% # Class of committed instruction
system.cpu.op_class_0::SimdAlu                      0      0.00%     53.08% # Class of committed instruction
system.cpu.op_class_0::SimdCmp                      0      0.00%     53.08% # Class of committed instruction
system.cpu.op_class_0::SimdCvt                      0      0.00%     53.08% # Class of committed instruction
system.cpu.op_class_0::SimdMisc                     0      0.00%     53.08% # Class of committed instruction
system.cpu.op_class_0::SimdMult                     0      0.00%     53.08% # Class of committed instruction
system.cpu.op_class_0::SimdMultAcc                  0      0.00%     53.08% # Class of committed instruction
system.cpu.op_class_0::SimdShift                    0      0.00%     53.08% # Class of committed instruction
system.cpu.op_class_0::SimdShiftAcc                 0      0.00%     53.08% # Class of committed instruction
system.cpu.op_class_0::SimdDiv                      0      0.00%     53.08% # Class of committed instruction
system.cpu.op_class_0::SimdSqrt                     0      0.00%     53.08% # Class of committed instruction
system.cpu.op_class_0::SimdFloatAdd                 0      0.00%     53.08% # Class of committed instruction
system.cpu.op_class_0::SimdFloatAlu                 0      0.00%     53.08% # Class of committed instruction
system.cpu.op_class_0::SimdFloatCmp                 0      0.00%     53.08% # Class of committed instruction
system.cpu.op_class_0::SimdFloatCvt                 0      0.00%     53.08% # Class of committed instruction
system.cpu.op_class_0::SimdFloatDiv                 0      0.00%     53.08% # Class of committed instruction
system.cpu.op_class_0::SimdFloatMisc                2      0.00%     53.08% # Class of committed instruction
system.cpu.op_class_0::SimdFloatMult                0      0.00%     53.08% # Class of committed instruction
system.cpu.op_class_0::SimdFloatMultAcc             0      0.00%     53.08% # Class of committed instruction
system.cpu.op_class_0::SimdFloatSqrt                0      0.00%     53.08% # Class of committed instruction
system.cpu.op_class_0::SimdReduceAdd                0      0.00%     53.08% # Class of committed instruction
system.cpu.op_class_0::SimdReduceAlu                0      0.00%     53.08% # Class of committed instruction
system.cpu.op_class_0::SimdReduceCmp                0      0.00%     53.08% # Class of committed instruction
system.cpu.op_class_0::SimdFloatReduceAdd            0      0.00%     53.08% # Class of committed instruction
system.cpu.op_class_0::SimdFloatReduceCmp            0      0.00%     53.08% # Class of committed instruction
system.cpu.op_class_0::SimdAes                      0      0.00%     53.08% # Class of committed instruction
system.cpu.op_class_0::SimdAesMix                   0      0.00%     53.08% # Class of committed instruction
system.cpu.op_class_0::SimdSha1Hash                 0      0.00%     53.08% # Class of committed instruction
system.cpu.op_class_0::SimdSha1Hash2                0      0.00%     53.08% # Class of committed instruction
system.cpu.op_class_0::SimdSha256Hash               0      0.00%     53.08% # Class of committed instruction
system.cpu.op_class_0::SimdSha256Hash2              0      0.00%     53.08% # Class of committed instruction
system.cpu.op_class_0::SimdShaSigma2                0      0.00%     53.08% # Class of committed instruction
system.cpu.op_class_0::SimdShaSigma3                0      0.00%     53.08% # Class of committed instruction
system.cpu.op_class_0::SimdPredAlu                  0      0.00%     53.08% # Class of committed instruction
system.cpu.op_class_0::MemRead                2082333      1.13%     54.21% # Class of committed instruction
system.cpu.op_class_0::MemWrite              84341627     45.79%    100.00% # Class of committed instruction
system.cpu.op_class_0::FloatMemRead                 0      0.00%    100.00% # Class of committed instruction
system.cpu.op_class_0::FloatMemWrite                0      0.00%    100.00% # Class of committed instruction
system.cpu.op_class_0::IprAccess                    0      0.00%    100.00% # Class of committed instruction
system.cpu.op_class_0::InstPrefetch                 0      0.00%    100.00% # Class of committed instruction
system.cpu.op_class_0::total                184179363                       # Class of committed instruction
system.cpu.tickCycles                       218580735                       # Number of cycles that the object actually ticked
system.cpu.workload.numSyscalls                    19                       # Number of system calls
system.membus.snoop_filter.hit_multi_requests           56                       # Number of requests hitting in the snoop filter with multiple (>1) holders of the requested data.
system.membus.snoop_filter.hit_multi_snoops            0                       # Number of snoops hitting in the snoop filter with multiple (>1) holders of the requested data.
system.membus.snoop_filter.hit_single_requests      2630974                       # Number of requests hitting in the snoop filter with a single holder of the requested data.
system.membus.snoop_filter.hit_single_snoops            0                       # Number of snoops hitting in the snoop filter with a single holder of the requested data.
system.membus.snoop_filter.tot_requests       5263340                       # Total number of requests made to the snoop filter.
system.membus.snoop_filter.tot_snoops               0                       # Total number of snoops made to the snoop filter.
system.membus.pwrStateResidencyTicks::UNDEFINED 384036164000                       # Cumulative time (in ticks) in various power states
system.membus.trans_dist::ReadResp                607                       # Transaction distribution
system.membus.trans_dist::WritebackDirty      2630761                       # Transaction distribution
system.membus.trans_dist::WritebackClean           20                       # Transaction distribution
system.membus.trans_dist::CleanEvict              193                       # Transaction distribution
system.membus.trans_dist::ReadExReq           2631759                       # Transaction distribution
system.membus.trans_dist::ReadExResp          2631759                       # Transaction distribution
system.membus.trans_dist::ReadCleanReq            388                       # Transaction distribution
system.membus.trans_dist::ReadSharedReq           219                       # Transaction distribution
system.membus.pkt_count_system.cpu.icache.mem_side::system.mem_ctrls.port          796                       # Packet count per connected master and slave (bytes)
system.membus.pkt_count_system.cpu.dcache.mem_side::system.mem_ctrls.port      7894910                       # Packet count per connected master and slave (bytes)
system.membus.pkt_count::total                7895706                       # Packet count per connected master and slave (bytes)
system.membus.pkt_size_system.cpu.icache.mem_side::system.mem_ctrls.port        52224                       # Cumulative packet size per connected master and slave (bytes)
system.membus.pkt_size_system.cpu.dcache.mem_side::system.mem_ctrls.port    673630592                       # Cumulative packet size per connected master and slave (bytes)
system.membus.pkt_size::total               673682816                       # Cumulative packet size per connected master and slave (bytes)
system.membus.snoops                                0                       # Total snoops (count)
system.membus.snoopTraffic                          0                       # Total snoop traffic (bytes)
system.membus.snoop_fanout::samples           2632366                       # Request fanout histogram
system.membus.snoop_fanout::mean             0.000021                       # Request fanout histogram
system.membus.snoop_fanout::stdev            0.004612                       # Request fanout histogram
system.membus.snoop_fanout::underflows              0      0.00%      0.00% # Request fanout histogram
system.membus.snoop_fanout::0                 2632310    100.00%    100.00% # Request fanout histogram
system.membus.snoop_fanout::1                      56      0.00%    100.00% # Request fanout histogram
system.membus.snoop_fanout::2                       0      0.00%    100.00% # Request fanout histogram
system.membus.snoop_fanout::overflows               0      0.00%    100.00% # Request fanout histogram
system.membus.snoop_fanout::min_value               0                       # Request fanout histogram
system.membus.snoop_fanout::max_value               1                       # Request fanout histogram
system.membus.snoop_fanout::total             2632366                       # Request fanout histogram
system.membus.reqLayer0.occupancy         26309588000                       # Layer occupancy (ticks)
system.membus.reqLayer0.utilization               6.9                       # Layer utilization (%)
system.membus.respLayer1.occupancy            3623500                       # Layer occupancy (ticks)
system.membus.respLayer1.utilization              0.0                       # Layer utilization (%)
system.membus.respLayer2.occupancy        24408063750                       # Layer occupancy (ticks)
system.membus.respLayer2.utilization              6.4                       # Layer utilization (%)
system.voltage_domain.voltage                       1                       # Voltage in Volts
system.clk_domain.clock                          1000                       # Clock period in ticks
system.cpu_voltage_domain.voltage                   1                       # Voltage in Volts
system.mem_ctrls.pwrStateResidencyTicks::UNDEFINED 384036164000                       # Cumulative time (in ticks) in various power states
system.mem_ctrls.bytes_read::.cpu.inst          49664                       # Number of bytes read from this memory
system.mem_ctrls.bytes_read::.cpu.data      336893184                       # Number of bytes read from this memory
system.mem_ctrls.bytes_read::total          336942848                       # Number of bytes read from this memory
system.mem_ctrls.bytes_inst_read::.cpu.inst        49664                       # Number of instructions bytes read from this memory
system.mem_ctrls.bytes_inst_read::total         49664                       # Number of instructions bytes read from this memory
system.mem_ctrls.bytes_written::.writebacks    336737408                       # Number of bytes written to this memory
system.mem_ctrls.bytes_written::total       336737408                       # Number of bytes written to this memory
system.mem_ctrls.num_reads::.cpu.inst             388                       # Number of read requests responded to by this memory
system.mem_ctrls.num_reads::.cpu.data         2631978                       # Number of read requests responded to by this memory
system.mem_ctrls.num_reads::total             2632366                       # Number of read requests responded to by this memory
system.mem_ctrls.num_writes::.writebacks      2630761                       # Number of write requests responded to by this memory
system.mem_ctrls.num_writes::total            2630761                       # Number of write requests responded to by this memory
system.mem_ctrls.bw_read::.cpu.inst            129321                       # Total read bandwidth from this memory (bytes/s)
system.mem_ctrls.bw_read::.cpu.data         877243384                       # Total read bandwidth from this memory (bytes/s)
system.mem_ctrls.bw_read::total             877372705                       # Total read bandwidth from this memory (bytes/s)
system.mem_ctrls.bw_inst_read::.cpu.inst       129321                       # Instruction read bandwidth from this memory (bytes/s)
system.mem_ctrls.bw_inst_read::total           129321                       # Instruction read bandwidth from this memory (bytes/s)
system.mem_ctrls.bw_write::.writebacks      876837755                       # Write bandwidth from this memory (bytes/s)
system.mem_ctrls.bw_write::total            876837755                       # Write bandwidth from this memory (bytes/s)
system.mem_ctrls.bw_total::.writebacks      876837755                       # Total bandwidth to/from this memory (bytes/s)
system.mem_ctrls.bw_total::.cpu.inst           129321                       # Total bandwidth to/from this memory (bytes/s)
system.mem_ctrls.bw_total::.cpu.data        877243384                       # Total bandwidth to/from this memory (bytes/s)
system.mem_ctrls.bw_total::total           1754210460                       # Total bandwidth to/from this memory (bytes/s)
system.mem_ctrls.avgPriority_.writebacks::samples   5261560.00                       # Average QoS priority value for accepted requests
system.mem_ctrls.avgPriority_.cpu.inst::samples       770.00                       # Average QoS priority value for accepted requests
system.mem_ctrls.avgPriority_.cpu.data::samples   5263956.00                       # Average QoS priority value for accepted requests
system.mem_ctrls.priorityMinLatency      0.000000018750                       # per QoS priority minimum request to response latency (s)
system.mem_ctrls.priorityMaxLatency      0.002227175500                       # per QoS priority maximum request to response latency (s)
system.mem_ctrls.numReadWriteTurnArounds       310140                       # Number of turnarounds from READ to WRITE
system.mem_ctrls.numWriteReadTurnArounds       310140                       # Number of turnarounds from WRITE to READ
system.mem_ctrls.numStayReadState            10317976                       # Number of times bus staying in READ state
system.mem_ctrls.numStayWriteState            4960223                       # Number of times bus staying in WRITE state
system.mem_ctrls.readReqs                     2632366                       # Number of read requests accepted
system.mem_ctrls.writeReqs                    2630780                       # Number of write requests accepted
system.mem_ctrls.readBursts                   5264732                       # Number of DRAM read bursts, including those serviced by the write queue
system.mem_ctrls.writeBursts                  5261560                       # Number of DRAM write bursts, including those merged in the write queue
system.mem_ctrls.servicedByWrQ                      6                       # Number of DRAM read bursts serviced by the write queue
system.mem_ctrls.mergedWrBursts                     0                       # Number of DRAM write bursts merged with an existing one
system.mem_ctrls.neitherReadNorWriteReqs            0                       # Number of requests that are neither read nor write
system.mem_ctrls.perBankRdBursts::0            329222                       # Per bank write bursts
system.mem_ctrls.perBankRdBursts::1            329162                       # Per bank write bursts
system.mem_ctrls.perBankRdBursts::2            329274                       # Per bank write bursts
system.mem_ctrls.perBankRdBursts::3            329198                       # Per bank write bursts
system.mem_ctrls.perBankRdBursts::4            329154                       # Per bank write bursts
system.mem_ctrls.perBankRdBursts::5            329092                       # Per bank write bursts
system.mem_ctrls.perBankRdBursts::6            329112                       # Per bank write bursts
system.mem_ctrls.perBankRdBursts::7            328870                       # Per bank write bursts
system.mem_ctrls.perBankRdBursts::8            328914                       # Per bank write bursts
system.mem_ctrls.perBankRdBursts::9            328888                       # Per bank write bursts
system.mem_ctrls.perBankRdBursts::10           328902                       # Per bank write bursts
system.mem_ctrls.perBankRdBursts::11           329098                       # Per bank write bursts
system.mem_ctrls.perBankRdBursts::12           328992                       # Per bank write bursts
system.mem_ctrls.perBankRdBursts::13           328864                       # Per bank write bursts
system.mem_ctrls.perBankRdBursts::14           329012                       # Per bank write bursts
system.mem_ctrls.perBankRdBursts::15           328972                       # Per bank write bursts
system.mem_ctrls.perBankWrBursts::0            328896                       # Per bank write bursts
system.mem_ctrls.perBankWrBursts::1            328960                       # Per bank write bursts
system.mem_ctrls.perBankWrBursts::2            329068                       # Per bank write bursts
system.mem_ctrls.perBankWrBursts::3            328981                       # Per bank write bursts
system.mem_ctrls.perBankWrBursts::4            328920                       # Per bank write bursts
system.mem_ctrls.perBankWrBursts::5            328918                       # Per bank write bursts
system.mem_ctrls.perBankWrBursts::6            328892                       # Per bank write bursts
system.mem_ctrls.perBankWrBursts::7            328706                       # Per bank write bursts
system.mem_ctrls.perBankWrBursts::8            328726                       # Per bank write bursts
system.mem_ctrls.perBankWrBursts::9            328704                       # Per bank write bursts
system.mem_ctrls.perBankWrBursts::10           328690                       # Per bank write bursts
system.mem_ctrls.perBankWrBursts::11           328922                       # Per bank write bursts
system.mem_ctrls.perBankWrBursts::12           328846                       # Per bank write bursts
system.mem_ctrls.perBankWrBursts::13           328700                       # Per bank write bursts
system.mem_ctrls.perBankWrBursts::14           328816                       # Per bank write bursts
system.mem_ctrls.perBankWrBursts::15           328788                       # Per bank write bursts
system.mem_ctrls.avgRdQLen                       2.00                       # Average read queue length when enqueuing
system.mem_ctrls.avgWrQLen                      26.33                       # Average write queue length when enqueuing
system.mem_ctrls.totQLat                 104917900750                       # Total ticks spent queuing
system.mem_ctrls.totBusLat                26323630000                       # Total ticks spent in databus transfers
system.mem_ctrls.totMemAccLat            203631513250                       # Total ticks spent from burst creation until serviced by the DRAM
system.mem_ctrls.avgQLat                     19928.46                       # Average queueing delay per DRAM burst
system.mem_ctrls.avgBusLat                    5000.00                       # Average bus latency per DRAM burst
system.mem_ctrls.avgMemAccLat                38678.46                       # Average memory access latency per DRAM burst
system.mem_ctrls.numRdRetry                         0                       # Number of times read queue was full causing retry
system.mem_ctrls.numWrRetry                         0                       # Number of times write queue was full causing retry
system.mem_ctrls.readRowHits                  4764900                       # Number of row buffer hits during reads
system.mem_ctrls.writeRowHits                 4797055                       # Number of row buffer hits during writes
system.mem_ctrls.readRowHitRate                 90.51                       # Row buffer hit rate for reads
system.mem_ctrls.writeRowHitRate                91.17                       # Row buffer hit rate for writes
system.mem_ctrls.readPktSize::0                     0                       # Read request sizes (log2)
system.mem_ctrls.readPktSize::1                     0                       # Read request sizes (log2)
system.mem_ctrls.readPktSize::2                     0                       # Read request sizes (log2)
system.mem_ctrls.readPktSize::3                     0                       # Read request sizes (log2)
system.mem_ctrls.readPktSize::4                     0                       # Read request sizes (log2)
system.mem_ctrls.readPktSize::5                     0                       # Read request sizes (log2)
system.mem_ctrls.readPktSize::6               5264732                       # Read request sizes (log2)
system.mem_ctrls.writePktSize::0                    0                       # Write request sizes (log2)
system.mem_ctrls.writePktSize::1                    0                       # Write request sizes (log2)
system.mem_ctrls.writePktSize::2                    0                       # Write request sizes (log2)
system.mem_ctrls.writePktSize::3                    0                       # Write request sizes (log2)
system.mem_ctrls.writePktSize::4                    0                       # Write request sizes (log2)
system.mem_ctrls.writePktSize::5                    0                       # Write request sizes (log2)
system.mem_ctrls.writePktSize::6              5261560                       # Write request sizes (log2)
system.mem_ctrls.rdQLenPdf::0                 2632174                       # What read queue length does an incoming req see
system.mem_ctrls.rdQLenPdf::1                 2632181                       # What read queue length does an incoming req see
system.mem_ctrls.rdQLenPdf::2                     179                       # What read queue length does an incoming req see
system.mem_ctrls.rdQLenPdf::3                     175                       # What read queue length does an incoming req see
system.mem_ctrls.rdQLenPdf::4                      10                       # What read queue length does an incoming req see
system.mem_ctrls.rdQLenPdf::5                       7                       # What read queue length does an incoming req see
system.mem_ctrls.rdQLenPdf::6                       0                       # What read queue length does an incoming req see
system.mem_ctrls.rdQLenPdf::7                       0                       # What read queue length does an incoming req see
system.mem_ctrls.rdQLenPdf::8                       0                       # What read queue length does an incoming req see
system.mem_ctrls.rdQLenPdf::9                       0                       # What read queue length does an incoming req see
system.mem_ctrls.rdQLenPdf::10                      0                       # What read queue length does an incoming req see
system.mem_ctrls.rdQLenPdf::11                      0                       # What read queue length does an incoming req see
system.mem_ctrls.rdQLenPdf::12                      0                       # What read queue length does an incoming req see
system.mem_ctrls.rdQLenPdf::13                      0                       # What read queue length does an incoming req see
system.mem_ctrls.rdQLenPdf::14                      0                       # What read queue length does an incoming req see
system.mem_ctrls.rdQLenPdf::15                      0                       # What read queue length does an incoming req see
system.mem_ctrls.rdQLenPdf::16                      0                       # What read queue length does an incoming req see
system.mem_ctrls.rdQLenPdf::17                      0                       # What read queue length does an incoming req see
system.mem_ctrls.rdQLenPdf::18                      0                       # What read queue length does an incoming req see
system.mem_ctrls.rdQLenPdf::19                      0                       # What read queue length does an incoming req see
system.mem_ctrls.rdQLenPdf::20                      0                       # What read queue length does an incoming req see
system.mem_ctrls.rdQLenPdf::21                      0                       # What read queue length does an incoming req see
system.mem_ctrls.rdQLenPdf::22                      0                       # What read queue length does an incoming req see
system.mem_ctrls.rdQLenPdf::23                      0                       # What read queue length does an incoming req see
system.mem_ctrls.rdQLenPdf::24                      0                       # What read queue length does an incoming req see
system.mem_ctrls.rdQLenPdf::25                      0                       # What read queue length does an incoming req see
system.mem_ctrls.rdQLenPdf::26                      0                       # What read queue length does an incoming req see
system.mem_ctrls.rdQLenPdf::27                      0                       # What read queue length does an incoming req see
system.mem_ctrls.rdQLenPdf::28                      0                       # What read queue length does an incoming req see
system.mem_ctrls.rdQLenPdf::29                      0                       # What read queue length does an incoming req see
system.mem_ctrls.rdQLenPdf::30                      0                       # What read queue length does an incoming req see
system.mem_ctrls.rdQLenPdf::31                      0                       # What read queue length does an incoming req see
system.mem_ctrls.wrQLenPdf::0                       1                       # What write queue length does an incoming req see
system.mem_ctrls.wrQLenPdf::1                       1                       # What write queue length does an incoming req see
system.mem_ctrls.wrQLenPdf::2                       1                       # What write queue length does an incoming req see
system.mem_ctrls.wrQLenPdf::3                       1                       # What write queue length does an incoming req see
system.mem_ctrls.wrQLenPdf::4                       1                       # What write queue length does an incoming req see
system.mem_ctrls.wrQLenPdf::5                       1                       # What write queue length does an incoming req see
system.mem_ctrls.wrQLenPdf::6                       1                       # What write queue length does an incoming req see
system.mem_ctrls.wrQLenPdf::7                       1                       # What write queue length does an incoming req see
system.mem_ctrls.wrQLenPdf::8                       1                       # What write queue length does an incoming req see
system.mem_ctrls.wrQLenPdf::9                       1                       # What write queue length does an incoming req see
system.mem_ctrls.wrQLenPdf::10                      1                       # What write queue length does an incoming req see
system.mem_ctrls.wrQLenPdf::11                      1                       # What write queue length does an incoming req see
system.mem_ctrls.wrQLenPdf::12                      1                       # What write queue length does an incoming req see
system.mem_ctrls.wrQLenPdf::13                      1                       # What write queue length does an incoming req see
system.mem_ctrls.wrQLenPdf::14                      1                       # What write queue length does an incoming req see
system.mem_ctrls.wrQLenPdf::15                 124301                       # What write queue length does an incoming req see
system.mem_ctrls.wrQLenPdf::16                 149621                       # What write queue length does an incoming req see
system.mem_ctrls.wrQLenPdf::17                 281505                       # What write queue length does an incoming req see
system.mem_ctrls.wrQLenPdf::18                 310142                       # What write queue length does an incoming req see
system.mem_ctrls.wrQLenPdf::19                 310147                       # What write queue length does an incoming req see
system.mem_ctrls.wrQLenPdf::20                 310151                       # What write queue length does an incoming req see
system.mem_ctrls.wrQLenPdf::21                 310154                       # What write queue length does an incoming req see
system.mem_ctrls.wrQLenPdf::22                 310144                       # What write queue length does an incoming req see
system.mem_ctrls.wrQLenPdf::23                 310141                       # What write queue length does an incoming req see
system.mem_ctrls.wrQLenPdf::24                 310141                       # What write queue length does an incoming req see
system.mem_ctrls.wrQLenPdf::25                 310145                       # What write queue length does an incoming req see
system.mem_ctrls.wrQLenPdf::26                 310150                       # What write queue length does an incoming req see
system.mem_ctrls.wrQLenPdf::27                 310147                       # What write queue length does an incoming req see
system.mem_ctrls.wrQLenPdf::28                 310143                       # What write queue length does an incoming req see
system.mem_ctrls.wrQLenPdf::29                 310141                       # What write queue length does an incoming req see
system.mem_ctrls.wrQLenPdf::30                 310140                       # What write queue length does an incoming req see
system.mem_ctrls.wrQLenPdf::31                 310140                       # What write queue length does an incoming req see
system.mem_ctrls.wrQLenPdf::32                 310140                       # What write queue length does an incoming req see
system.mem_ctrls.wrQLenPdf::33                  53952                       # What write queue length does an incoming req see
system.mem_ctrls.wrQLenPdf::34                      0                       # What write queue length does an incoming req see
system.mem_ctrls.wrQLenPdf::35                      0                       # What write queue length does an incoming req see
system.mem_ctrls.wrQLenPdf::36                      0                       # What write queue length does an incoming req see
system.mem_ctrls.wrQLenPdf::37                      0                       # What write queue length does an incoming req see
system.mem_ctrls.wrQLenPdf::38                      0                       # What write queue length does an incoming req see
system.mem_ctrls.wrQLenPdf::39                      0                       # What write queue length does an incoming req see
system.mem_ctrls.wrQLenPdf::40                      0                       # What write queue length does an incoming req see
system.mem_ctrls.wrQLenPdf::41                      0                       # What write queue length does an incoming req see
system.mem_ctrls.wrQLenPdf::42                      0                       # What write queue length does an incoming req see
system.mem_ctrls.wrQLenPdf::43                      0                       # What write queue length does an incoming req see
system.mem_ctrls.wrQLenPdf::44                      0                       # What write queue length does an incoming req see
system.mem_ctrls.wrQLenPdf::45                      0                       # What write queue length does an incoming req see
system.mem_ctrls.wrQLenPdf::46                      0                       # What write queue length does an incoming req see
system.mem_ctrls.wrQLenPdf::47                      0                       # What write queue length does an incoming req see
system.mem_ctrls.wrQLenPdf::48                      0                       # What write queue length does an incoming req see
system.mem_ctrls.wrQLenPdf::49                      0                       # What write queue length does an incoming req see
system.mem_ctrls.wrQLenPdf::50                      0                       # What write queue length does an incoming req see
system.mem_ctrls.wrQLenPdf::51                      0                       # What write queue length does an incoming req see
system.mem_ctrls.wrQLenPdf::52                      0                       # What write queue length does an incoming req see
system.mem_ctrls.wrQLenPdf::53                      0                       # What write queue length does an incoming req see
system.mem_ctrls.wrQLenPdf::54                      0                       # What write queue length does an incoming req see
system.mem_ctrls.wrQLenPdf::55                      0                       # What write queue length does an incoming req see
system.mem_ctrls.wrQLenPdf::56                      0                       # What write queue length does an incoming req see
system.mem_ctrls.wrQLenPdf::57                      0                       # What write queue length does an incoming req see
system.mem_ctrls.wrQLenPdf::58                      0                       # What write queue length does an incoming req see
system.mem_ctrls.wrQLenPdf::59                      0                       # What write queue length does an incoming req see
system.mem_ctrls.wrQLenPdf::60                      0                       # What write queue length does an incoming req see
system.mem_ctrls.wrQLenPdf::61                      0                       # What write queue length does an incoming req see
system.mem_ctrls.wrQLenPdf::62                      0                       # What write queue length does an incoming req see
system.mem_ctrls.wrQLenPdf::63                      0                       # What write queue length does an incoming req see
system.mem_ctrls.bytesPerActivate::samples       964302                       # Bytes accessed per row activation
system.mem_ctrls.bytesPerActivate::mean    698.619047                       # Bytes accessed per row activation
system.mem_ctrls.bytesPerActivate::gmean   512.982045                       # Bytes accessed per row activation
system.mem_ctrls.bytesPerActivate::stdev   395.807506                       # Bytes accessed per row activation
system.mem_ctrls.bytesPerActivate::0-127        21050      2.18%      2.18% # Bytes accessed per row activation
system.mem_ctrls.bytesPerActivate::128-255       237190     24.60%     26.78% # Bytes accessed per row activation
system.mem_ctrls.bytesPerActivate::256-383        27981      2.90%     29.68% # Bytes accessed per row activation
system.mem_ctrls.bytesPerActivate::384-511        24635      2.55%     32.24% # Bytes accessed per row activation
system.mem_ctrls.bytesPerActivate::512-639        56761      5.89%     38.12% # Bytes accessed per row activation
system.mem_ctrls.bytesPerActivate::640-767        22154      2.30%     40.42% # Bytes accessed per row activation
system.mem_ctrls.bytesPerActivate::768-895        20329      2.11%     42.53% # Bytes accessed per row activation
system.mem_ctrls.bytesPerActivate::896-1023        40143      4.16%     46.69% # Bytes accessed per row activation
system.mem_ctrls.bytesPerActivate::1024-1151       514059     53.31%    100.00% # Bytes accessed per row activation
system.mem_ctrls.bytesPerActivate::total       964302                       # Bytes accessed per row activation
system.mem_ctrls.rdPerTurnAround::samples       310140                       # Reads before turning the bus around for writes
system.mem_ctrls.rdPerTurnAround::mean      16.975282                       # Reads before turning the bus around for writes
system.mem_ctrls.rdPerTurnAround::gmean     16.938454                       # Reads before turning the bus around for writes
system.mem_ctrls.rdPerTurnAround::stdev      3.351716                       # Reads before turning the bus around for writes
system.mem_ctrls.rdPerTurnAround::0-63         310131    100.00%    100.00% # Reads before turning the bus around for writes
system.mem_ctrls.rdPerTurnAround::64-127            7      0.00%    100.00% # Reads before turning the bus around for writes
system.mem_ctrls.rdPerTurnAround::128-191            1      0.00%    100.00% # Reads before turning the bus around for writes
system.mem_ctrls.rdPerTurnAround::1728-1791            1      0.00%    100.00% # Reads before turning the bus around for writes
system.mem_ctrls.rdPerTurnAround::total        310140                       # Reads before turning the bus around for writes
system.mem_ctrls.wrPerTurnAround::samples       310140                       # Writes before turning the bus around for reads
system.mem_ctrls.wrPerTurnAround::mean      16.965025                       # Writes before turning the bus around for reads
system.mem_ctrls.wrPerTurnAround::gmean     16.935403                       # Writes before turning the bus around for reads
system.mem_ctrls.wrPerTurnAround::stdev      1.003985                       # Writes before turning the bus around for reads
system.mem_ctrls.wrPerTurnAround::16           160506     51.75%     51.75% # Writes before turning the bus around for reads
system.mem_ctrls.wrPerTurnAround::17             1373      0.44%     52.20% # Writes before turning the bus around for reads
system.mem_ctrls.wrPerTurnAround::18           146880     47.36%     99.55% # Writes before turning the bus around for reads
system.mem_ctrls.wrPerTurnAround::19             1364      0.44%     99.99% # Writes before turning the bus around for reads
system.mem_ctrls.wrPerTurnAround::20               17      0.01%    100.00% # Writes before turning the bus around for reads
system.mem_ctrls.wrPerTurnAround::total        310140                       # Writes before turning the bus around for reads
system.mem_ctrls.bytesReadDRAM              336942464                       # Total number of bytes read from DRAM
system.mem_ctrls.bytesReadWrQ                     384                       # Total number of bytes read from write queue
system.mem_ctrls.bytesWritten               336738112                       # Total number of bytes written to DRAM
system.mem_ctrls.bytesReadSys               336942848                       # Total read bytes from the system interface side
system.mem_ctrls.bytesWrittenSys            336739840                       # Total written bytes from the system interface side
system.mem_ctrls.avgRdBW                       877.37                       # Average DRAM read bandwidth in MiByte/s
system.mem_ctrls.avgWrBW                       876.84                       # Average achieved write bandwidth in MiByte/s
system.mem_ctrls.avgRdBWSys                    877.37                       # Average system read bandwidth in MiByte/s
system.mem_ctrls.avgWrBWSys                    876.84                       # Average system write bandwidth in MiByte/s
system.mem_ctrls.peakBW                      12800.00                       # Theoretical peak bandwidth in MiByte/s
system.mem_ctrls.busUtil                        13.70                       # Data bus utilization in percentage
system.mem_ctrls.busUtilRead                     6.85                       # Data bus utilization in percentage for reads
system.mem_ctrls.busUtilWrite                    6.85                       # Data bus utilization in percentage for writes
system.mem_ctrls.totGap                  384036140000                       # Total gap between requests
system.mem_ctrls.avgGap                      72967.03                       # Average gap between requests
system.mem_ctrls.masterReadBytes::.cpu.inst        49280                       # Per-master bytes read from memory
system.mem_ctrls.masterReadBytes::.cpu.data    336893184                       # Per-master bytes read from memory
system.mem_ctrls.masterWriteBytes::.writebacks    336738112                       # Per-master bytes write to memory
system.mem_ctrls.masterReadRate::.cpu.inst 128321.248412428147                       # Per-master bytes read from memory rate (Bytes/sec)
system.mem_ctrls.masterReadRate::.cpu.data 877243383.776742458344                       # Per-master bytes read from memory rate (Bytes/sec)
system.mem_ctrls.masterWriteRate::.writebacks 876839588.471673130989                       # Per-master bytes write to memory rate (Bytes/sec)
system.mem_ctrls.masterReadAccesses::.cpu.inst          776                       # Per-master read serviced memory accesses
system.mem_ctrls.masterReadAccesses::.cpu.data      5263956                       # Per-master read serviced memory accesses
system.mem_ctrls.masterWriteAccesses::.writebacks      5261560                       # Per-master write serviced memory accesses
system.mem_ctrls.masterReadTotalLat::.cpu.inst     23502000                       # Per-master read total memory access latency
system.mem_ctrls.masterReadTotalLat::.cpu.data 203608011250                       # Per-master read total memory access latency
system.mem_ctrls.masterWriteTotalLat::.writebacks 9245374871500                       # Per-master write total memory access latency
system.mem_ctrls.masterReadAvgLat::.cpu.inst     30286.08                       # Per-master read average memory access latency
system.mem_ctrls.masterReadAvgLat::.cpu.data     38679.66                       # Per-master read average memory access latency
system.mem_ctrls.masterWriteAvgLat::.writebacks   1757154.70                       # Per-master write average memory access latency
system.mem_ctrls.pageHitRate                    90.84                       # Row buffer hit rate, read and write combined
system.mem_ctrls.rank1.actEnergy           3441622800                       # Energy for activate commands per rank (pJ)
system.mem_ctrls.rank1.preEnergy           1829265900                       # Energy for precharge commands per rank (pJ)
system.mem_ctrls.rank1.readEnergy         18789923880                       # Energy for read commands per rank (pJ)
system.mem_ctrls.rank1.writeEnergy        13729602240                       # Energy for write commands per rank (pJ)
system.mem_ctrls.rank1.refreshEnergy     30315274080.000004                       # Energy for refresh commands per rank (pJ)
system.mem_ctrls.rank1.actBackEnergy      91121615880                       # Energy for active background per rank (pJ)
system.mem_ctrls.rank1.preBackEnergy      70735895040                       # Energy for precharge background per rank (pJ)
system.mem_ctrls.rank1.actPowerDownEnergy            0                       # Energy for active power-down per rank (pJ)
system.mem_ctrls.rank1.prePowerDownEnergy            0                       # Energy for precharge power-down per rank (pJ)
system.mem_ctrls.rank1.selfRefreshEnergy            0                       # Energy for self refresh per rank (pJ)
system.mem_ctrls.rank1.totalEnergy       229963199820                       # Total energy per rank (pJ)
system.mem_ctrls.rank1.averagePower        598.806106                       # Core power per rank (mW)
system.mem_ctrls.rank1.totalIdleTime                0                       # Total Idle time Per DRAM Rank
system.mem_ctrls.rank1.memoryStateTime::IDLE 180091311500                       # Time in different power states
system.mem_ctrls.rank1.memoryStateTime::REF  12823720000                       # Time in different power states
system.mem_ctrls.rank1.memoryStateTime::SREF            0                       # Time in different power states
system.mem_ctrls.rank1.memoryStateTime::PRE_PDN            0                       # Time in different power states
system.mem_ctrls.rank1.memoryStateTime::ACT 191121132500                       # Time in different power states
system.mem_ctrls.rank1.memoryStateTime::ACT_PDN            0                       # Time in different power states
system.mem_ctrls.rank0.actEnergy           3443507760                       # Energy for activate commands per rank (pJ)
system.mem_ctrls.rank0.preEnergy           1830260190                       # Energy for precharge commands per rank (pJ)
system.mem_ctrls.rank0.readEnergy         18800219760                       # Energy for read commands per rank (pJ)
system.mem_ctrls.rank0.writeEnergy        13735600020                       # Energy for write commands per rank (pJ)
system.mem_ctrls.rank0.refreshEnergy     30315274080.000004                       # Energy for refresh commands per rank (pJ)
system.mem_ctrls.rank0.actBackEnergy      91131612540                       # Energy for active background per rank (pJ)
system.mem_ctrls.rank0.preBackEnergy      70727476800                       # Energy for precharge background per rank (pJ)
system.mem_ctrls.rank0.actPowerDownEnergy            0                       # Energy for active power-down per rank (pJ)
system.mem_ctrls.rank0.prePowerDownEnergy            0                       # Energy for precharge power-down per rank (pJ)
system.mem_ctrls.rank0.selfRefreshEnergy            0                       # Energy for self refresh per rank (pJ)
system.mem_ctrls.rank0.totalEnergy       229983951150                       # Total energy per rank (pJ)
system.mem_ctrls.rank0.averagePower        598.860141                       # Core power per rank (mW)
system.mem_ctrls.rank0.totalIdleTime                0                       # Total Idle time Per DRAM Rank
system.mem_ctrls.rank0.memoryStateTime::IDLE 180067402250                       # Time in different power states
system.mem_ctrls.rank0.memoryStateTime::REF  12823720000                       # Time in different power states
system.mem_ctrls.rank0.memoryStateTime::SREF            0                       # Time in different power states
system.mem_ctrls.rank0.memoryStateTime::PRE_PDN            0                       # Time in different power states
system.mem_ctrls.rank0.memoryStateTime::ACT 191145041750                       # Time in different power states
system.mem_ctrls.rank0.memoryStateTime::ACT_PDN            0                       # Time in different power states
system.cpu_clk_domain.clock                      1000                       # Clock period in ticks
system.cpu.pwrStateResidencyTicks::ON    384036164000                       # Cumulative time (in ticks) in various power states
system.cpu.icache.pwrStateResidencyTicks::UNDEFINED 384036164000                       # Cumulative time (in ticks) in various power states
system.cpu.icache.demand_hits::.cpu.inst     31784569                       # number of demand (read+write) hits
system.cpu.icache.demand_hits::total         31784569                       # number of demand (read+write) hits
system.cpu.icache.overall_hits::.cpu.inst     31784569                       # number of overall hits
system.cpu.icache.overall_hits::total        31784569                       # number of overall hits
system.cpu.icache.demand_misses::.cpu.inst          388                       # number of demand (read+write) misses
system.cpu.icache.demand_misses::total            388                       # number of demand (read+write) misses
system.cpu.icache.overall_misses::.cpu.inst          388                       # number of overall misses
system.cpu.icache.overall_misses::total           388                       # number of overall misses
system.cpu.icache.demand_miss_latency::.cpu.inst     26098000                       # number of demand (read+write) miss cycles
system.cpu.icache.demand_miss_latency::total     26098000                       # number of demand (read+write) miss cycles
system.cpu.icache.overall_miss_latency::.cpu.inst     26098000                       # number of overall miss cycles
system.cpu.icache.overall_miss_latency::total     26098000                       # number of overall miss cycles
system.cpu.icache.demand_accesses::.cpu.inst     31784957                       # number of demand (read+write) accesses
system.cpu.icache.demand_accesses::total     31784957                       # number of demand (read+write) accesses
system.cpu.icache.overall_accesses::.cpu.inst     31784957                       # number of overall (read+write) accesses
system.cpu.icache.overall_accesses::total     31784957                       # number of overall (read+write) accesses
system.cpu.icache.demand_miss_rate::.cpu.inst     0.000012                       # miss rate for demand accesses
system.cpu.icache.demand_miss_rate::total     0.000012                       # miss rate for demand accesses
system.cpu.icache.overall_miss_rate::.cpu.inst     0.000012                       # miss rate for overall accesses
system.cpu.icache.overall_miss_rate::total     0.000012                       # miss rate for overall accesses
system.cpu.icache.demand_avg_miss_latency::.cpu.inst 67262.886598                       # average overall miss latency
system.cpu.icache.demand_avg_miss_latency::total 67262.886598                       # average overall miss latency
system.cpu.icache.overall_avg_miss_latency::.cpu.inst 67262.886598                       # average overall miss latency
system.cpu.icache.overall_avg_miss_latency::total 67262.886598                       # average overall miss latency
system.cpu.icache.blocked_cycles::no_mshrs            0                       # number of cycles access was blocked
system.cpu.icache.blocked_cycles::no_targets            0                       # number of cycles access was blocked
system.cpu.icache.blocked::no_mshrs                 0                       # number of cycles access was blocked
system.cpu.icache.blocked::no_targets               0                       # number of cycles access was blocked
system.cpu.icache.avg_blocked_cycles::no_mshrs          nan                       # average number of cycles each access was blocked
system.cpu.icache.avg_blocked_cycles::no_targets          nan                       # average number of cycles each access was blocked
system.cpu.icache.writebacks::.writebacks           20                       # number of writebacks
system.cpu.icache.writebacks::total                20                       # number of writebacks
system.cpu.icache.demand_mshr_misses::.cpu.inst          388                       # number of demand (read+write) MSHR misses
system.cpu.icache.demand_mshr_misses::total          388                       # number of demand (read+write) MSHR misses
system.cpu.icache.overall_mshr_misses::.cpu.inst          388                       # number of overall MSHR misses
system.cpu.icache.overall_mshr_misses::total          388                       # number of overall MSHR misses
system.cpu.icache.demand_mshr_miss_latency::.cpu.inst     25322000                       # number of demand (read+write) MSHR miss cycles
system.cpu.icache.demand_mshr_miss_latency::total     25322000                       # number of demand (read+write) MSHR miss cycles
system.cpu.icache.overall_mshr_miss_latency::.cpu.inst     25322000                       # number of overall MSHR miss cycles
system.cpu.icache.overall_mshr_miss_latency::total     25322000                       # number of overall MSHR miss cycles
system.cpu.icache.demand_mshr_miss_rate::.cpu.inst     0.000012                       # mshr miss rate for demand accesses
system.cpu.icache.demand_mshr_miss_rate::total     0.000012                       # mshr miss rate for demand accesses
system.cpu.icache.overall_mshr_miss_rate::.cpu.inst     0.000012                       # mshr miss rate for overall accesses
system.cpu.icache.overall_mshr_miss_rate::total     0.000012                       # mshr miss rate for overall accesses
system.cpu.icache.demand_avg_mshr_miss_latency::.cpu.inst 65262.886598                       # average overall mshr miss latency
system.cpu.icache.demand_avg_mshr_miss_latency::total 65262.886598                       # average overall mshr miss latency
system.cpu.icache.overall_avg_mshr_miss_latency::.cpu.inst 65262.886598                       # average overall mshr miss latency
system.cpu.icache.overall_avg_mshr_miss_latency::total 65262.886598                       # average overall mshr miss latency
system.cpu.icache.replacements                     20                       # number of replacements
system.cpu.icache.ReadReq_hits::.cpu.inst     31784569                       # number of ReadReq hits
system.cpu.icache.ReadReq_hits::total        31784569                       # number of ReadReq hits
system.cpu.icache.ReadReq_misses::.cpu.inst          388                       # number of ReadReq misses
system.cpu.icache.ReadReq_misses::total           388                       # number of ReadReq misses
system.cpu.icache.ReadReq_miss_latency::.cpu.inst     26098000                       # number of ReadReq miss cycles
system.cpu.icache.ReadReq_miss_latency::total     26098000                       # number of ReadReq miss cycles
system.cpu.icache.ReadReq_accesses::.cpu.inst     31784957                       # number of ReadReq accesses(hits+misses)
system.cpu.icache.ReadReq_accesses::total     31784957                       # number of ReadReq accesses(hits+misses)
system.cpu.icache.ReadReq_miss_rate::.cpu.inst     0.000012                       # miss rate for ReadReq accesses
system.cpu.icache.ReadReq_miss_rate::total     0.000012                       # miss rate for ReadReq accesses
system.cpu.icache.ReadReq_avg_miss_latency::.cpu.inst 67262.886598                       # average ReadReq miss latency
system.cpu.icache.ReadReq_avg_miss_latency::total 67262.886598                       # average ReadReq miss latency
system.cpu.icache.ReadReq_mshr_misses::.cpu.inst          388                       # number of ReadReq MSHR misses
system.cpu.icache.ReadReq_mshr_misses::total          388                       # number of ReadReq MSHR misses
system.cpu.icache.ReadReq_mshr_miss_latency::.cpu.inst     25322000                       # number of ReadReq MSHR miss cycles
system.cpu.icache.ReadReq_mshr_miss_latency::total     25322000                       # number of ReadReq MSHR miss cycles
system.cpu.icache.ReadReq_mshr_miss_rate::.cpu.inst     0.000012                       # mshr miss rate for ReadReq accesses
system.cpu.icache.ReadReq_mshr_miss_rate::total     0.000012                       # mshr miss rate for ReadReq accesses
system.cpu.icache.ReadReq_avg_mshr_miss_latency::.cpu.inst 65262.886598                       # average ReadReq mshr miss latency
system.cpu.icache.ReadReq_avg_mshr_miss_latency::total 65262.886598                       # average ReadReq mshr miss latency
system.cpu.icache.tags.pwrStateResidencyTicks::UNDEFINED 384036164000                       # Cumulative time (in ticks) in various power states
system.cpu.icache.tags.tagsinuse           309.380364                       # Cycle average of tags in use
system.cpu.icache.tags.total_refs            31784957                       # Total number of references to valid blocks.
system.cpu.icache.tags.sampled_refs               388                       # Sample count of references to valid blocks.
system.cpu.icache.tags.avg_refs          81919.992268                       # Average number of references to valid blocks.
system.cpu.icache.tags.warmup_cycle             82000                       # Cycle when the warmup percentage was hit.
system.cpu.icache.tags.occ_blocks::.cpu.inst   309.380364                       # Average occupied blocks per requestor
system.cpu.icache.tags.occ_percent::.cpu.inst     0.302129                       # Average percentage of cache occupancy
system.cpu.icache.tags.occ_percent::total     0.302129                       # Average percentage of cache occupancy
system.cpu.icache.tags.occ_task_id_blocks::1024          368                       # Occupied blocks per task id
system.cpu.icache.tags.age_task_id_blocks_1024::4          368                       # Occupied blocks per task id
system.cpu.icache.tags.occ_task_id_percent::1024     0.359375                       # Percentage of cache occupancy per task id
system.cpu.icache.tags.tag_accesses          63570302                       # Number of tag accesses
system.cpu.icache.tags.data_accesses         63570302                       # Number of data accesses
system.cpu.dtb.walker.pwrStateResidencyTicks::UNDEFINED 384036164000                       # Cumulative time (in ticks) in various power states
system.cpu.dtb.stage2_mmu.stage2_tlb.walker.pwrStateResidencyTicks::UNDEFINED 384036164000                       # Cumulative time (in ticks) in various power states
system.cpu.dcache.pwrStateResidencyTicks::UNDEFINED 384036164000                       # Cumulative time (in ticks) in various power states
system.cpu.dcache.demand_hits::.cpu.data     81122618                       # number of demand (read+write) hits
system.cpu.dcache.demand_hits::total         81122618                       # number of demand (read+write) hits
system.cpu.dcache.overall_hits::.cpu.data     81122652                       # number of overall hits
system.cpu.dcache.overall_hits::total        81122652                       # number of overall hits
system.cpu.dcache.demand_misses::.cpu.data      5262296                       # number of demand (read+write) misses
system.cpu.dcache.demand_misses::total        5262296                       # number of demand (read+write) misses
system.cpu.dcache.overall_misses::.cpu.data      5262309                       # number of overall misses
system.cpu.dcache.overall_misses::total       5262309                       # number of overall misses
system.cpu.dcache.demand_miss_latency::.cpu.data 417108328000                       # number of demand (read+write) miss cycles
system.cpu.dcache.demand_miss_latency::total 417108328000                       # number of demand (read+write) miss cycles
system.cpu.dcache.overall_miss_latency::.cpu.data 417108328000                       # number of overall miss cycles
system.cpu.dcache.overall_miss_latency::total 417108328000                       # number of overall miss cycles
system.cpu.dcache.demand_accesses::.cpu.data     86384914                       # number of demand (read+write) accesses
system.cpu.dcache.demand_accesses::total     86384914                       # number of demand (read+write) accesses
system.cpu.dcache.overall_accesses::.cpu.data     86384961                       # number of overall (read+write) accesses
system.cpu.dcache.overall_accesses::total     86384961                       # number of overall (read+write) accesses
system.cpu.dcache.demand_miss_rate::.cpu.data     0.060917                       # miss rate for demand accesses
system.cpu.dcache.demand_miss_rate::total     0.060917                       # miss rate for demand accesses
system.cpu.dcache.overall_miss_rate::.cpu.data     0.060917                       # miss rate for overall accesses
system.cpu.dcache.overall_miss_rate::total     0.060917                       # miss rate for overall accesses
system.cpu.dcache.demand_avg_miss_latency::.cpu.data 79263.562521                       # average overall miss latency
system.cpu.dcache.demand_avg_miss_latency::total 79263.562521                       # average overall miss latency
system.cpu.dcache.overall_avg_miss_latency::.cpu.data 79263.366708                       # average overall miss latency
system.cpu.dcache.overall_avg_miss_latency::total 79263.366708                       # average overall miss latency
system.cpu.dcache.blocked_cycles::no_mshrs            0                       # number of cycles access was blocked
system.cpu.dcache.blocked_cycles::no_targets            0                       # number of cycles access was blocked
system.cpu.dcache.blocked::no_mshrs                 0                       # number of cycles access was blocked
system.cpu.dcache.blocked::no_targets               0                       # number of cycles access was blocked
system.cpu.dcache.avg_blocked_cycles::no_mshrs          nan                       # average number of cycles each access was blocked
system.cpu.dcache.avg_blocked_cycles::no_targets          nan                       # average number of cycles each access was blocked
system.cpu.dcache.writebacks::.writebacks      2630761                       # number of writebacks
system.cpu.dcache.writebacks::total           2630761                       # number of writebacks
system.cpu.dcache.demand_mshr_hits::.cpu.data      2630327                       # number of demand (read+write) MSHR hits
system.cpu.dcache.demand_mshr_hits::total      2630327                       # number of demand (read+write) MSHR hits
system.cpu.dcache.overall_mshr_hits::.cpu.data      2630327                       # number of overall MSHR hits
system.cpu.dcache.overall_mshr_hits::total      2630327                       # number of overall MSHR hits
system.cpu.dcache.demand_mshr_misses::.cpu.data      2631969                       # number of demand (read+write) MSHR misses
system.cpu.dcache.demand_mshr_misses::total      2631969                       # number of demand (read+write) MSHR misses
system.cpu.dcache.overall_mshr_misses::.cpu.data      2631977                       # number of overall MSHR misses
system.cpu.dcache.overall_mshr_misses::total      2631977                       # number of overall MSHR misses
system.cpu.dcache.demand_mshr_miss_latency::.cpu.data 194144320000                       # number of demand (read+write) MSHR miss cycles
system.cpu.dcache.demand_mshr_miss_latency::total 194144320000                       # number of demand (read+write) MSHR miss cycles
system.cpu.dcache.overall_mshr_miss_latency::.cpu.data 194144887000                       # number of overall MSHR miss cycles
system.cpu.dcache.overall_mshr_miss_latency::total 194144887000                       # number of overall MSHR miss cycles
system.cpu.dcache.demand_mshr_miss_rate::.cpu.data     0.030468                       # mshr miss rate for demand accesses
system.cpu.dcache.demand_mshr_miss_rate::total     0.030468                       # mshr miss rate for demand accesses
system.cpu.dcache.overall_mshr_miss_rate::.cpu.data     0.030468                       # mshr miss rate for overall accesses
system.cpu.dcache.overall_mshr_miss_rate::total     0.030468                       # mshr miss rate for overall accesses
system.cpu.dcache.demand_avg_mshr_miss_latency::.cpu.data 73763.908314                       # average overall mshr miss latency
system.cpu.dcache.demand_avg_mshr_miss_latency::total 73763.908314                       # average overall mshr miss latency
system.cpu.dcache.overall_avg_mshr_miss_latency::.cpu.data 73763.899533                       # average overall mshr miss latency
system.cpu.dcache.overall_avg_mshr_miss_latency::total 73763.899533                       # average overall mshr miss latency
system.cpu.dcache.replacements                2630954                       # number of replacements
system.cpu.dcache.ReadReq_hits::.cpu.data      2043405                       # number of ReadReq hits
system.cpu.dcache.ReadReq_hits::total         2043405                       # number of ReadReq hits
system.cpu.dcache.ReadReq_misses::.cpu.data          229                       # number of ReadReq misses
system.cpu.dcache.ReadReq_misses::total           229                       # number of ReadReq misses
system.cpu.dcache.ReadReq_miss_latency::.cpu.data     18046000                       # number of ReadReq miss cycles
system.cpu.dcache.ReadReq_miss_latency::total     18046000                       # number of ReadReq miss cycles
system.cpu.dcache.ReadReq_accesses::.cpu.data      2043634                       # number of ReadReq accesses(hits+misses)
system.cpu.dcache.ReadReq_accesses::total      2043634                       # number of ReadReq accesses(hits+misses)
system.cpu.dcache.ReadReq_miss_rate::.cpu.data     0.000112                       # miss rate for ReadReq accesses
system.cpu.dcache.ReadReq_miss_rate::total     0.000112                       # miss rate for ReadReq accesses
system.cpu.dcache.ReadReq_avg_miss_latency::.cpu.data 78803.493450                       # average ReadReq miss latency
system.cpu.dcache.ReadReq_avg_miss_latency::total 78803.493450                       # average ReadReq miss latency
system.cpu.dcache.ReadReq_mshr_hits::.cpu.data           19                       # number of ReadReq MSHR hits
system.cpu.dcache.ReadReq_mshr_hits::total           19                       # number of ReadReq MSHR hits
system.cpu.dcache.ReadReq_mshr_misses::.cpu.data          210                       # number of ReadReq MSHR misses
system.cpu.dcache.ReadReq_mshr_misses::total          210                       # number of ReadReq MSHR misses
system.cpu.dcache.ReadReq_mshr_miss_latency::.cpu.data     16303000                       # number of ReadReq MSHR miss cycles
system.cpu.dcache.ReadReq_mshr_miss_latency::total     16303000                       # number of ReadReq MSHR miss cycles
system.cpu.dcache.ReadReq_mshr_miss_rate::.cpu.data     0.000103                       # mshr miss rate for ReadReq accesses
system.cpu.dcache.ReadReq_mshr_miss_rate::total     0.000103                       # mshr miss rate for ReadReq accesses
system.cpu.dcache.ReadReq_avg_mshr_miss_latency::.cpu.data 77633.333333                       # average ReadReq mshr miss latency
system.cpu.dcache.ReadReq_avg_mshr_miss_latency::total 77633.333333                       # average ReadReq mshr miss latency
system.cpu.dcache.WriteReq_hits::.cpu.data     79079213                       # number of WriteReq hits
system.cpu.dcache.WriteReq_hits::total       79079213                       # number of WriteReq hits
system.cpu.dcache.WriteReq_misses::.cpu.data      5262067                       # number of WriteReq misses
system.cpu.dcache.WriteReq_misses::total      5262067                       # number of WriteReq misses
system.cpu.dcache.WriteReq_miss_latency::.cpu.data 417090282000                       # number of WriteReq miss cycles
system.cpu.dcache.WriteReq_miss_latency::total 417090282000                       # number of WriteReq miss cycles
system.cpu.dcache.WriteReq_accesses::.cpu.data     84341280                       # number of WriteReq accesses(hits+misses)
system.cpu.dcache.WriteReq_accesses::total     84341280                       # number of WriteReq accesses(hits+misses)
system.cpu.dcache.WriteReq_miss_rate::.cpu.data     0.062390                       # miss rate for WriteReq accesses
system.cpu.dcache.WriteReq_miss_rate::total     0.062390                       # miss rate for WriteReq accesses
system.cpu.dcache.WriteReq_avg_miss_latency::.cpu.data 79263.582543                       # average WriteReq miss latency
system.cpu.dcache.WriteReq_avg_miss_latency::total 79263.582543                       # average WriteReq miss latency
system.cpu.dcache.WriteReq_mshr_hits::.cpu.data      2630308                       # number of WriteReq MSHR hits
system.cpu.dcache.WriteReq_mshr_hits::total      2630308                       # number of WriteReq MSHR hits
system.cpu.dcache.WriteReq_mshr_misses::.cpu.data      2631759                       # number of WriteReq MSHR misses
system.cpu.dcache.WriteReq_mshr_misses::total      2631759                       # number of WriteReq MSHR misses
system.cpu.dcache.WriteReq_mshr_miss_latency::.cpu.data 194128017000                       # number of WriteReq MSHR miss cycles
system.cpu.dcache.WriteReq_mshr_miss_latency::total 194128017000                       # number of WriteReq MSHR miss cycles
system.cpu.dcache.WriteReq_mshr_miss_rate::.cpu.data     0.031204                       # mshr miss rate for WriteReq accesses
system.cpu.dcache.WriteReq_mshr_miss_rate::total     0.031204                       # mshr miss rate for WriteReq accesses
system.cpu.dcache.WriteReq_avg_mshr_miss_latency::.cpu.data 73763.599555                       # average WriteReq mshr miss latency
system.cpu.dcache.WriteReq_avg_mshr_miss_latency::total 73763.599555                       # average WriteReq mshr miss latency
system.cpu.dcache.SoftPFReq_hits::.cpu.data           34                       # number of SoftPFReq hits
system.cpu.dcache.SoftPFReq_hits::total            34                       # number of SoftPFReq hits
system.cpu.dcache.SoftPFReq_misses::.cpu.data           13                       # number of SoftPFReq misses
system.cpu.dcache.SoftPFReq_misses::total           13                       # number of SoftPFReq misses
system.cpu.dcache.SoftPFReq_accesses::.cpu.data           47                       # number of SoftPFReq accesses(hits+misses)
system.cpu.dcache.SoftPFReq_accesses::total           47                       # number of SoftPFReq accesses(hits+misses)
system.cpu.dcache.SoftPFReq_miss_rate::.cpu.data     0.276596                       # miss rate for SoftPFReq accesses
system.cpu.dcache.SoftPFReq_miss_rate::total     0.276596                       # miss rate for SoftPFReq accesses
system.cpu.dcache.SoftPFReq_mshr_misses::.cpu.data            8                       # number of SoftPFReq MSHR misses
system.cpu.dcache.SoftPFReq_mshr_misses::total            8                       # number of SoftPFReq MSHR misses
system.cpu.dcache.SoftPFReq_mshr_miss_latency::.cpu.data       567000                       # number of SoftPFReq MSHR miss cycles
system.cpu.dcache.SoftPFReq_mshr_miss_latency::total       567000                       # number of SoftPFReq MSHR miss cycles
system.cpu.dcache.SoftPFReq_mshr_miss_rate::.cpu.data     0.170213                       # mshr miss rate for SoftPFReq accesses
system.cpu.dcache.SoftPFReq_mshr_miss_rate::total     0.170213                       # mshr miss rate for SoftPFReq accesses
system.cpu.dcache.SoftPFReq_avg_mshr_miss_latency::.cpu.data        70875                       # average SoftPFReq mshr miss latency
system.cpu.dcache.SoftPFReq_avg_mshr_miss_latency::total        70875                       # average SoftPFReq mshr miss latency
system.cpu.dcache.LoadLockedReq_hits::.cpu.data           49                       # number of LoadLockedReq hits
system.cpu.dcache.LoadLockedReq_hits::total           49                       # number of LoadLockedReq hits
system.cpu.dcache.LoadLockedReq_misses::.cpu.data            1                       # number of LoadLockedReq misses
system.cpu.dcache.LoadLockedReq_misses::total            1                       # number of LoadLockedReq misses
system.cpu.dcache.LoadLockedReq_miss_latency::.cpu.data        58000                       # number of LoadLockedReq miss cycles
system.cpu.dcache.LoadLockedReq_miss_latency::total        58000                       # number of LoadLockedReq miss cycles
system.cpu.dcache.LoadLockedReq_accesses::.cpu.data           50                       # number of LoadLockedReq accesses(hits+misses)
system.cpu.dcache.LoadLockedReq_accesses::total           50                       # number of LoadLockedReq accesses(hits+misses)
system.cpu.dcache.LoadLockedReq_miss_rate::.cpu.data     0.020000                       # miss rate for LoadLockedReq accesses
system.cpu.dcache.LoadLockedReq_miss_rate::total     0.020000                       # miss rate for LoadLockedReq accesses
system.cpu.dcache.LoadLockedReq_avg_miss_latency::.cpu.data        58000                       # average LoadLockedReq miss latency
system.cpu.dcache.LoadLockedReq_avg_miss_latency::total        58000                       # average LoadLockedReq miss latency
system.cpu.dcache.LoadLockedReq_mshr_misses::.cpu.data            1                       # number of LoadLockedReq MSHR misses
system.cpu.dcache.LoadLockedReq_mshr_misses::total            1                       # number of LoadLockedReq MSHR misses
system.cpu.dcache.LoadLockedReq_mshr_miss_latency::.cpu.data        56000                       # number of LoadLockedReq MSHR miss cycles
system.cpu.dcache.LoadLockedReq_mshr_miss_latency::total        56000                       # number of LoadLockedReq MSHR miss cycles
system.cpu.dcache.LoadLockedReq_mshr_miss_rate::.cpu.data     0.020000                       # mshr miss rate for LoadLockedReq accesses
system.cpu.dcache.LoadLockedReq_mshr_miss_rate::total     0.020000                       # mshr miss rate for LoadLockedReq accesses
system.cpu.dcache.LoadLockedReq_avg_mshr_miss_latency::.cpu.data        56000                       # average LoadLockedReq mshr miss latency
system.cpu.dcache.LoadLockedReq_avg_mshr_miss_latency::total        56000                       # average LoadLockedReq mshr miss latency
system.cpu.dcache.StoreCondReq_hits::.cpu.data           50                       # number of StoreCondReq hits
system.cpu.dcache.StoreCondReq_hits::total           50                       # number of StoreCondReq hits
system.cpu.dcache.StoreCondReq_accesses::.cpu.data           50                       # number of StoreCondReq accesses(hits+misses)
system.cpu.dcache.StoreCondReq_accesses::total           50                       # number of StoreCondReq accesses(hits+misses)
system.cpu.dcache.tags.pwrStateResidencyTicks::UNDEFINED 384036164000                       # Cumulative time (in ticks) in various power states
system.cpu.dcache.tags.tagsinuse          1021.371276                       # Cycle average of tags in use
system.cpu.dcache.tags.total_refs            83754729                       # Total number of references to valid blocks.
system.cpu.dcache.tags.sampled_refs           2631978                       # Sample count of references to valid blocks.
system.cpu.dcache.tags.avg_refs             31.821972                       # Average number of references to valid blocks.
system.cpu.dcache.tags.warmup_cycle            160000                       # Cycle when the warmup percentage was hit.
system.cpu.dcache.tags.occ_blocks::.cpu.data  1021.371276                       # Average occupied blocks per requestor
system.cpu.dcache.tags.occ_percent::.cpu.data     0.997433                       # Average percentage of cache occupancy
system.cpu.dcache.tags.occ_percent::total     0.997433                       # Average percentage of cache occupancy
system.cpu.dcache.tags.occ_task_id_blocks::1024         1024                       # Occupied blocks per task id
system.cpu.dcache.tags.age_task_id_blocks_1024::0           71                       # Occupied blocks per task id
system.cpu.dcache.tags.age_task_id_blocks_1024::1          624                       # Occupied blocks per task id
system.cpu.dcache.tags.age_task_id_blocks_1024::2          329                       # Occupied blocks per task id
system.cpu.dcache.tags.occ_task_id_percent::1024            1                       # Percentage of cache occupancy per task id
system.cpu.dcache.tags.tag_accesses         348172222                       # Number of tag accesses
system.cpu.dcache.tags.data_accesses        348172222                       # Number of data accesses
system.cpu.itb.walker.pwrStateResidencyTicks::UNDEFINED 384036164000                       # Cumulative time (in ticks) in various power states
system.cpu.itb.stage2_mmu.stage2_tlb.walker.pwrStateResidencyTicks::UNDEFINED 384036164000                       # Cumulative time (in ticks) in various power states

---------- End Simulation Statistics   ----------
