
---------- Begin Simulation Statistics ----------
final_tick                               117661588000                       # Number of ticks from beginning of simulation (restored from checkpoints and never reset)
host_inst_rate                                 231383                       # Simulator instruction rate (inst/s)
host_mem_usage                                 682936                       # Number of bytes of host memory used
host_op_rate                                   253207                       # Simulator op (including micro ops) rate (op/s)
host_seconds                                   432.18                       # Real time elapsed on the host
host_tick_rate                              272249309                       # Simulator tick rate (ticks/s)
sim_freq                                 1000000000000                       # Frequency of simulated ticks
sim_insts                                   100000001                       # Number of instructions simulated
sim_ops                                     109431937                       # Number of ops (including micro ops) simulated
sim_seconds                                  0.117662                       # Number of seconds simulated
sim_ticks                                117661588000                       # Number of ticks simulated
system.cpu.branchPred.BTBCorrect                    0                       # Number of correct BTB predictions (this stat may not work properly.
system.cpu.branchPred.BTBHitPct             87.597010                       # BTB Hit Percentage
system.cpu.branchPred.BTBHits                 8748154                       # Number of BTB hits
system.cpu.branchPred.BTBLookups              9986818                       # Number of BTB lookups
system.cpu.branchPred.RASInCorrect                348                       # Number of incorrect RAS predictions.
system.cpu.branchPred.condIncorrect            155025                       # Number of conditional branches incorrect
system.cpu.branchPred.condPredicted          16528358                       # Number of conditional branches predicted
system.cpu.branchPred.indirectHits             300026                       # Number of indirect target hits.
system.cpu.branchPred.indirectLookups          540257                       # Number of indirect predictor lookups.
system.cpu.branchPred.indirectMisses           240231                       # Number of indirect misses.
system.cpu.branchPred.lookups                20635778                       # Number of BP lookups
system.cpu.branchPred.usedRAS                 1050684                       # Number of times the RAS was used to get a target.
system.cpu.branchPredindirectMispredicted         1210                       # Number of mispredicted indirect branches.
system.cpu.committedInsts                   100000001                       # Number of instructions committed
system.cpu.committedOps                     109431937                       # Number of ops (including micro ops) committed
system.cpu.cpi                               1.176616                       # CPI: cycles per instruction
system.cpu.discardedOps                        732728                       # Number of ops (including micro ops) which were discarded before commit
system.cpu.dtb.accesses                             0                       # DTB accesses
system.cpu.dtb.align_faults                         0                       # Number of TLB faults due to alignment restrictions
system.cpu.dtb.domain_faults                        0                       # Number of TLB faults due to domain restrictions
system.cpu.dtb.flush_entries                        0                       # Number of entries that have been flushed from TLB
system.cpu.dtb.flush_tlb                            0                       # Number of times complete TLB was flushed
system.cpu.dtb.flush_tlb_asid                       0                       # Number of times TLB was flushed by ASID
system.cpu.dtb.flush_tlb_mva                        0                       # Number of times TLB was flushed by MVA
system.cpu.dtb.flush_tlb_mva_asid                   0                       # Number of times TLB was flushed by MVA & ASID
system.cpu.dtb.hits                                 0                       # DTB hits
system.cpu.dtb.inst_accesses                        0                       # ITB inst accesses
system.cpu.dtb.inst_hits                            0                       # ITB inst hits
system.cpu.dtb.inst_misses                          0                       # ITB inst misses
system.cpu.dtb.misses                               0                       # DTB misses
system.cpu.dtb.perms_faults                         0                       # Number of TLB faults due to permissions restrictions
system.cpu.dtb.prefetch_faults                      0                       # Number of TLB faults due to prefetch
system.cpu.dtb.read_accesses                        0                       # DTB read accesses
system.cpu.dtb.read_hits                            0                       # DTB read hits
system.cpu.dtb.read_misses                          0                       # DTB read misses
system.cpu.dtb.stage2_mmu.stage2_tlb.accesses            0                       # DTB accesses
system.cpu.dtb.stage2_mmu.stage2_tlb.align_faults            0                       # Number of TLB faults due to alignment restrictions
system.cpu.dtb.stage2_mmu.stage2_tlb.domain_faults            0                       # Number of TLB faults due to domain restrictions
system.cpu.dtb.stage2_mmu.stage2_tlb.flush_entries            0                       # Number of entries that have been flushed from TLB
system.cpu.dtb.stage2_mmu.stage2_tlb.flush_tlb            0                       # Number of times complete TLB was flushed
system.cpu.dtb.stage2_mmu.stage2_tlb.flush_tlb_asid            0                       # Number of times TLB was flushed by ASID
system.cpu.dtb.stage2_mmu.stage2_tlb.flush_tlb_mva            0                       # Number of times TLB was flushed by MVA
system.cpu.dtb.stage2_mmu.stage2_tlb.flush_tlb_mva_asid            0                       # Number of times TLB was flushed by MVA & ASID
system.cpu.dtb.stage2_mmu.stage2_tlb.hits            0                       # DTB hits
system.cpu.dtb.stage2_mmu.stage2_tlb.inst_accesses            0                       # ITB inst accesses
system.cpu.dtb.stage2_mmu.stage2_tlb.inst_hits            0                       # ITB inst hits
system.cpu.dtb.stage2_mmu.stage2_tlb.inst_misses            0                       # ITB inst misses
system.cpu.dtb.stage2_mmu.stage2_tlb.misses            0                       # DTB misses
system.cpu.dtb.stage2_mmu.stage2_tlb.perms_faults            0                       # Number of TLB faults due to permissions restrictions
system.cpu.dtb.stage2_mmu.stage2_tlb.prefetch_faults            0                       # Number of TLB faults due to prefetch
system.cpu.dtb.stage2_mmu.stage2_tlb.read_accesses            0                       # DTB read accesses
system.cpu.dtb.stage2_mmu.stage2_tlb.read_hits            0                       # DTB read hits
system.cpu.dtb.stage2_mmu.stage2_tlb.read_misses            0                       # DTB read misses
system.cpu.dtb.stage2_mmu.stage2_tlb.walker.walkRequestOrigin_Requested::Data            0                       # Table walker requests started/completed, data/inst
system.cpu.dtb.stage2_mmu.stage2_tlb.walker.walkRequestOrigin_Requested::Inst            0                       # Table walker requests started/completed, data/inst
system.cpu.dtb.stage2_mmu.stage2_tlb.walker.walkRequestOrigin_Requested::total            0                       # Table walker requests started/completed, data/inst
system.cpu.dtb.stage2_mmu.stage2_tlb.walker.walkRequestOrigin_Completed::Data            0                       # Table walker requests started/completed, data/inst
system.cpu.dtb.stage2_mmu.stage2_tlb.walker.walkRequestOrigin_Completed::Inst            0                       # Table walker requests started/completed, data/inst
system.cpu.dtb.stage2_mmu.stage2_tlb.walker.walkRequestOrigin_Completed::total            0                       # Table walker requests started/completed, data/inst
system.cpu.dtb.stage2_mmu.stage2_tlb.walker.walkRequestOrigin::total            0                       # Table walker requests started/completed, data/inst
system.cpu.dtb.stage2_mmu.stage2_tlb.walker.walks            0                       # Table walker walks requested
system.cpu.dtb.stage2_mmu.stage2_tlb.write_accesses            0                       # DTB write accesses
system.cpu.dtb.stage2_mmu.stage2_tlb.write_hits            0                       # DTB write hits
system.cpu.dtb.stage2_mmu.stage2_tlb.write_misses            0                       # DTB write misses
system.cpu.dtb.walker.walkRequestOrigin_Requested::Data            0                       # Table walker requests started/completed, data/inst
system.cpu.dtb.walker.walkRequestOrigin_Requested::Inst            0                       # Table walker requests started/completed, data/inst
system.cpu.dtb.walker.walkRequestOrigin_Requested::total            0                       # Table walker requests started/completed, data/inst
system.cpu.dtb.walker.walkRequestOrigin_Completed::Data            0                       # Table walker requests started/completed, data/inst
system.cpu.dtb.walker.walkRequestOrigin_Completed::Inst            0                       # Table walker requests started/completed, data/inst
system.cpu.dtb.walker.walkRequestOrigin_Completed::total            0                       # Table walker requests started/completed, data/inst
system.cpu.dtb.walker.walkRequestOrigin::total            0                       # Table walker requests started/completed, data/inst
system.cpu.dtb.walker.walks                         0                       # Table walker walks requested
system.cpu.dtb.write_accesses                       0                       # DTB write accesses
system.cpu.dtb.write_hits                           0                       # DTB write hits
system.cpu.dtb.write_misses                         0                       # DTB write misses
system.cpu.fetch2.amo_instructions                  0                       # Number of memory atomic instructions successfully decoded
system.cpu.fetch2.fp_instructions                   0                       # Number of floating point instructions successfully decoded
system.cpu.fetch2.int_instructions           49965523                       # Number of integer instructions successfully decoded
system.cpu.fetch2.load_instructions          17199431                       # Number of memory load instructions successfully decoded
system.cpu.fetch2.store_instructions         10036410                       # Number of memory store instructions successfully decoded
system.cpu.fetch2.vec_instructions                  0                       # Number of SIMD instructions successfully decoded
system.cpu.idleCycles                         6334879                       # Total number of cycles that the object has spent stopped
system.cpu.ipc                               0.849895                       # IPC: instructions per cycle
system.cpu.itb.accesses                             0                       # DTB accesses
system.cpu.itb.align_faults                         0                       # Number of TLB faults due to alignment restrictions
system.cpu.itb.domain_faults                        0                       # Number of TLB faults due to domain restrictions
system.cpu.itb.flush_entries                        0                       # Number of entries that have been flushed from TLB
system.cpu.itb.flush_tlb                            0                       # Number of times complete TLB was flushed
system.cpu.itb.flush_tlb_asid                       0                       # Number of times TLB was flushed by ASID
system.cpu.itb.flush_tlb_mva                        0                       # Number of times TLB was flushed by MVA
system.cpu.itb.flush_tlb_mva_asid                   0                       # Number of times TLB was flushed by MVA & ASID
system.cpu.itb.hits                                 0                       # DTB hits
system.cpu.itb.inst_accesses                        0                       # ITB inst accesses
system.cpu.itb.inst_hits                            0                       # ITB inst hits
system.cpu.itb.inst_misses                          0                       # ITB inst misses
system.cpu.itb.misses                               0                       # DTB misses
system.cpu.itb.perms_faults                         0                       # Number of TLB faults due to permissions restrictions
system.cpu.itb.prefetch_faults                      0                       # Number of TLB faults due to prefetch
system.cpu.itb.read_accesses                        0                       # DTB read accesses
system.cpu.itb.read_hits                            0                       # DTB read hits
system.cpu.itb.read_misses                          0                       # DTB read misses
system.cpu.itb.stage2_mmu.stage2_tlb.accesses            0                       # DTB accesses
system.cpu.itb.stage2_mmu.stage2_tlb.align_faults            0                       # Number of TLB faults due to alignment restrictions
system.cpu.itb.stage2_mmu.stage2_tlb.domain_faults            0                       # Number of TLB faults due to domain restrictions
system.cpu.itb.stage2_mmu.stage2_tlb.flush_entries            0                       # Number of entries that have been flushed from TLB
system.cpu.itb.stage2_mmu.stage2_tlb.flush_tlb            0                       # Number of times complete TLB was flushed
system.cpu.itb.stage2_mmu.stage2_tlb.flush_tlb_asid            0                       # Number of times TLB was flushed by ASID
system.cpu.itb.stage2_mmu.stage2_tlb.flush_tlb_mva            0                       # Number of times TLB was flushed by MVA
system.cpu.itb.stage2_mmu.stage2_tlb.flush_tlb_mva_asid            0                       # Number of times TLB was flushed by MVA & ASID
system.cpu.itb.stage2_mmu.stage2_tlb.hits            0                       # DTB hits
system.cpu.itb.stage2_mmu.stage2_tlb.inst_accesses            0                       # ITB inst accesses
system.cpu.itb.stage2_mmu.stage2_tlb.inst_hits            0                       # ITB inst hits
system.cpu.itb.stage2_mmu.stage2_tlb.inst_misses            0                       # ITB inst misses
system.cpu.itb.stage2_mmu.stage2_tlb.misses            0                       # DTB misses
system.cpu.itb.stage2_mmu.stage2_tlb.perms_faults            0                       # Number of TLB faults due to permissions restrictions
system.cpu.itb.stage2_mmu.stage2_tlb.prefetch_faults            0                       # Number of TLB faults due to prefetch
system.cpu.itb.stage2_mmu.stage2_tlb.read_accesses            0                       # DTB read accesses
system.cpu.itb.stage2_mmu.stage2_tlb.read_hits            0                       # DTB read hits
system.cpu.itb.stage2_mmu.stage2_tlb.read_misses            0                       # DTB read misses
system.cpu.itb.stage2_mmu.stage2_tlb.walker.walkRequestOrigin_Requested::Data            0                       # Table walker requests started/completed, data/inst
system.cpu.itb.stage2_mmu.stage2_tlb.walker.walkRequestOrigin_Requested::Inst            0                       # Table walker requests started/completed, data/inst
system.cpu.itb.stage2_mmu.stage2_tlb.walker.walkRequestOrigin_Requested::total            0                       # Table walker requests started/completed, data/inst
system.cpu.itb.stage2_mmu.stage2_tlb.walker.walkRequestOrigin_Completed::Data            0                       # Table walker requests started/completed, data/inst
system.cpu.itb.stage2_mmu.stage2_tlb.walker.walkRequestOrigin_Completed::Inst            0                       # Table walker requests started/completed, data/inst
system.cpu.itb.stage2_mmu.stage2_tlb.walker.walkRequestOrigin_Completed::total            0                       # Table walker requests started/completed, data/inst
system.cpu.itb.stage2_mmu.stage2_tlb.walker.walkRequestOrigin::total            0                       # Table walker requests started/completed, data/inst
system.cpu.itb.stage2_mmu.stage2_tlb.walker.walks            0                       # Table walker walks requested
system.cpu.itb.stage2_mmu.stage2_tlb.write_accesses            0                       # DTB write accesses
system.cpu.itb.stage2_mmu.stage2_tlb.write_hits            0                       # DTB write hits
system.cpu.itb.stage2_mmu.stage2_tlb.write_misses            0                       # DTB write misses
system.cpu.itb.walker.walkRequestOrigin_Requested::Data            0                       # Table walker requests started/completed, data/inst
system.cpu.itb.walker.walkRequestOrigin_Requested::Inst            0                       # Table walker requests started/completed, data/inst
system.cpu.itb.walker.walkRequestOrigin_Requested::total            0                       # Table walker requests started/completed, data/inst
system.cpu.itb.walker.walkRequestOrigin_Completed::Data            0                       # Table walker requests started/completed, data/inst
system.cpu.itb.walker.walkRequestOrigin_Completed::Inst            0                       # Table walker requests started/completed, data/inst
system.cpu.itb.walker.walkRequestOrigin_Completed::total            0                       # Table walker requests started/completed, data/inst
system.cpu.itb.walker.walkRequestOrigin::total            0                       # Table walker requests started/completed, data/inst
system.cpu.itb.walker.walks                         0                       # Table walker walks requested
system.cpu.itb.write_accesses                       0                       # DTB write accesses
system.cpu.itb.write_hits                           0                       # DTB write hits
system.cpu.itb.write_misses                         0                       # DTB write misses
system.cpu.numCycles                        117661588                       # number of cpu cycles simulated
system.cpu.numFetchSuspends                         0                       # Number of times Execute suspended instruction fetching
system.cpu.numWorkItemsCompleted                    0                       # number of work items this cpu completed
system.cpu.numWorkItemsStarted                      0                       # number of work items this cpu started
system.cpu.op_class_0::No_OpClass                   0      0.00%      0.00% # Class of committed instruction
system.cpu.op_class_0::IntAlu                72955303     66.67%     66.67% # Class of committed instruction
system.cpu.op_class_0::IntMult                 568365      0.52%     67.19% # Class of committed instruction
system.cpu.op_class_0::IntDiv                       0      0.00%     67.19% # Class of committed instruction
system.cpu.op_class_0::FloatAdd                     0      0.00%     67.19% # Class of committed instruction
system.cpu.op_class_0::FloatCmp                     0      0.00%     67.19% # Class of committed instruction
system.cpu.op_class_0::FloatCvt                     0      0.00%     67.19% # Class of committed instruction
system.cpu.op_class_0::FloatMult                    0      0.00%     67.19% # Class of committed instruction
system.cpu.op_class_0::FloatMultAcc                 0      0.00%     67.19% # Class of committed instruction
system.cpu.op_class_0::FloatDiv                     0      0.00%     67.19% # Class of committed instruction
system.cpu.op_class_0::FloatMisc                    0      0.00%     67.19% # Class of committed instruction
system.cpu.op_class_0::FloatSqrt                    0      0.00%     67.19% # Class of committed instruction
system.cpu.op_class_0::SimdAdd                 241252      0.22%     67.41% # Class of committed instruction
system.cpu.op_class_0::SimdAddAcc                   0      0.00%     67.41% # Class of committed instruction
system.cpu.op_class_0::SimdAlu                 154720      0.14%     67.55% # Class of committed instruction
system.cpu.op_class_0::SimdCmp                 120626      0.11%     67.66% # Class of committed instruction
system.cpu.op_class_0::SimdCvt                      0      0.00%     67.66% # Class of committed instruction
system.cpu.op_class_0::SimdMisc                 44544      0.04%     67.70% # Class of committed instruction
system.cpu.op_class_0::SimdMult                     0      0.00%     67.70% # Class of committed instruction
system.cpu.op_class_0::SimdMultAcc                  0      0.00%     67.70% # Class of committed instruction
system.cpu.op_class_0::SimdShift                    0      0.00%     67.70% # Class of committed instruction
system.cpu.op_class_0::SimdShiftAcc                 0      0.00%     67.70% # Class of committed instruction
system.cpu.op_class_0::SimdDiv                      0      0.00%     67.70% # Class of committed instruction
system.cpu.op_class_0::SimdSqrt                     0      0.00%     67.70% # Class of committed instruction
system.cpu.op_class_0::SimdFloatAdd                 0      0.00%     67.70% # Class of committed instruction
system.cpu.op_class_0::SimdFloatAlu                 0      0.00%     67.70% # Class of committed instruction
system.cpu.op_class_0::SimdFloatCmp                 0      0.00%     67.70% # Class of committed instruction
system.cpu.op_class_0::SimdFloatCvt                 0      0.00%     67.70% # Class of committed instruction
system.cpu.op_class_0::SimdFloatDiv                 0      0.00%     67.70% # Class of committed instruction
system.cpu.op_class_0::SimdFloatMisc           166465      0.15%     67.85% # Class of committed instruction
system.cpu.op_class_0::SimdFloatMult                0      0.00%     67.85% # Class of committed instruction
system.cpu.op_class_0::SimdFloatMultAcc             0      0.00%     67.85% # Class of committed instruction
system.cpu.op_class_0::SimdFloatSqrt                0      0.00%     67.85% # Class of committed instruction
system.cpu.op_class_0::SimdReduceAdd                0      0.00%     67.85% # Class of committed instruction
system.cpu.op_class_0::SimdReduceAlu                0      0.00%     67.85% # Class of committed instruction
system.cpu.op_class_0::SimdReduceCmp                0      0.00%     67.85% # Class of committed instruction
system.cpu.op_class_0::SimdFloatReduceAdd            0      0.00%     67.85% # Class of committed instruction
system.cpu.op_class_0::SimdFloatReduceCmp            0      0.00%     67.85% # Class of committed instruction
system.cpu.op_class_0::SimdAes                      0      0.00%     67.85% # Class of committed instruction
system.cpu.op_class_0::SimdAesMix                   0      0.00%     67.85% # Class of committed instruction
system.cpu.op_class_0::SimdSha1Hash                 0      0.00%     67.85% # Class of committed instruction
system.cpu.op_class_0::SimdSha1Hash2                0      0.00%     67.85% # Class of committed instruction
system.cpu.op_class_0::SimdSha256Hash               0      0.00%     67.85% # Class of committed instruction
system.cpu.op_class_0::SimdSha256Hash2              0      0.00%     67.85% # Class of committed instruction
system.cpu.op_class_0::SimdShaSigma2                0      0.00%     67.85% # Class of committed instruction
system.cpu.op_class_0::SimdShaSigma3                0      0.00%     67.85% # Class of committed instruction
system.cpu.op_class_0::SimdPredAlu                  0      0.00%     67.85% # Class of committed instruction
system.cpu.op_class_0::MemRead               20646465     18.87%     86.72% # Class of committed instruction
system.cpu.op_class_0::MemWrite              14534197     13.28%    100.00% # Class of committed instruction
system.cpu.op_class_0::FloatMemRead                 0      0.00%    100.00% # Class of committed instruction
system.cpu.op_class_0::FloatMemWrite                0      0.00%    100.00% # Class of committed instruction
system.cpu.op_class_0::IprAccess                    0      0.00%    100.00% # Class of committed instruction
system.cpu.op_class_0::InstPrefetch                 0      0.00%    100.00% # Class of committed instruction
system.cpu.op_class_0::total                109431937                       # Class of committed instruction
system.cpu.tickCycles                       111326709                       # Number of cycles that the object actually ticked
system.cpu.workload.numSyscalls                    86                       # Number of system calls
system.membus.snoop_filter.hit_multi_requests            0                       # Number of requests hitting in the snoop filter with multiple (>1) holders of the requested data.
system.membus.snoop_filter.hit_multi_snoops            0                       # Number of snoops hitting in the snoop filter with multiple (>1) holders of the requested data.
system.membus.snoop_filter.hit_single_requests        38075                       # Number of requests hitting in the snoop filter with a single holder of the requested data.
system.membus.snoop_filter.hit_single_snoops            0                       # Number of snoops hitting in the snoop filter with a single holder of the requested data.
system.membus.snoop_filter.tot_requests         84762                       # Total number of requests made to the snoop filter.
system.membus.snoop_filter.tot_snoops               0                       # Total number of snoops made to the snoop filter.
system.tol2bus.snoop_filter.hit_multi_requests         2056                       # Number of requests hitting in the snoop filter with multiple (>1) holders of the requested data.
system.tol2bus.snoop_filter.hit_multi_snoops           14                       # Number of snoops hitting in the snoop filter with multiple (>1) holders of the requested data.
system.tol2bus.snoop_filter.hit_single_requests       216549                       # Number of requests hitting in the snoop filter with a single holder of the requested data.
system.tol2bus.snoop_filter.hit_single_snoops          663                       # Number of snoops hitting in the snoop filter with a single holder of the requested data.
system.tol2bus.snoop_filter.tot_requests       434046                       # Total number of requests made to the snoop filter.
system.tol2bus.snoop_filter.tot_snoops            677                       # Total number of snoops made to the snoop filter.
system.membus.pwrStateResidencyTicks::UNDEFINED 117661588000                       # Cumulative time (in ticks) in various power states
system.membus.trans_dist::ReadResp               7890                       # Transaction distribution
system.membus.trans_dist::WritebackDirty        37702                       # Transaction distribution
system.membus.trans_dist::CleanEvict              358                       # Transaction distribution
system.membus.trans_dist::ReadExReq             38812                       # Transaction distribution
system.membus.trans_dist::ReadExResp            38812                       # Transaction distribution
system.membus.trans_dist::ReadSharedReq          7890                       # Transaction distribution
system.membus.pkt_count_system.l2.mem_side::system.mem_ctrls.port       131464                       # Packet count per connected master and slave (bytes)
system.membus.pkt_count::total                 131464                       # Packet count per connected master and slave (bytes)
system.membus.pkt_size_system.l2.mem_side::system.mem_ctrls.port      5401856                       # Cumulative packet size per connected master and slave (bytes)
system.membus.pkt_size::total                 5401856                       # Cumulative packet size per connected master and slave (bytes)
system.membus.snoops                                0                       # Total snoops (count)
system.membus.snoopTraffic                          0                       # Total snoop traffic (bytes)
system.membus.snoop_fanout::samples             46702                       # Request fanout histogram
system.membus.snoop_fanout::mean                    0                       # Request fanout histogram
system.membus.snoop_fanout::stdev                   0                       # Request fanout histogram
system.membus.snoop_fanout::underflows              0      0.00%      0.00% # Request fanout histogram
system.membus.snoop_fanout::0                   46702    100.00%    100.00% # Request fanout histogram
system.membus.snoop_fanout::1                       0      0.00%    100.00% # Request fanout histogram
system.membus.snoop_fanout::overflows               0      0.00%    100.00% # Request fanout histogram
system.membus.snoop_fanout::min_value               0                       # Request fanout histogram
system.membus.snoop_fanout::max_value               0                       # Request fanout histogram
system.membus.snoop_fanout::total               46702                       # Request fanout histogram
system.membus.respLayer1.occupancy          252608000                       # Layer occupancy (ticks)
system.membus.respLayer1.utilization              0.2                       # Layer utilization (%)
system.membus.reqLayer0.occupancy           235570000                       # Layer occupancy (ticks)
system.membus.reqLayer0.utilization               0.2                       # Layer utilization (%)
system.tol2bus.pwrStateResidencyTicks::UNDEFINED 117661588000                       # Cumulative time (in ticks) in various power states
system.tol2bus.trans_dist::ReadResp            169921                       # Transaction distribution
system.tol2bus.trans_dist::WritebackDirty       154836                       # Transaction distribution
system.tol2bus.trans_dist::WritebackClean          758                       # Transaction distribution
system.tol2bus.trans_dist::CleanEvict           99613                       # Transaction distribution
system.tol2bus.trans_dist::ReadExReq            47580                       # Transaction distribution
system.tol2bus.trans_dist::ReadExResp           47580                       # Transaction distribution
system.tol2bus.trans_dist::ReadCleanReq          1202                       # Transaction distribution
system.tol2bus.trans_dist::ReadSharedReq       168719                       # Transaction distribution
system.tol2bus.pkt_count_system.cpu.icache.mem_side::system.l2.cpu_side         3162                       # Packet count per connected master and slave (bytes)
system.tol2bus.pkt_count_system.cpu.dcache.mem_side::system.l2.cpu_side       648385                       # Packet count per connected master and slave (bytes)
system.tol2bus.pkt_count::total                651547                       # Packet count per connected master and slave (bytes)
system.tol2bus.pkt_size_system.cpu.icache.mem_side::system.l2.cpu_side       125440                       # Cumulative packet size per connected master and slave (bytes)
system.tol2bus.pkt_size_system.cpu.dcache.mem_side::system.l2.cpu_side     21339712                       # Cumulative packet size per connected master and slave (bytes)
system.tol2bus.pkt_size::total               21465152                       # Cumulative packet size per connected master and slave (bytes)
system.tol2bus.snoops                           38662                       # Total snoops (count)
system.tol2bus.snoopTraffic                   2412928                       # Total snoop traffic (bytes)
system.tol2bus.snoop_fanout::samples           256163                       # Request fanout histogram
system.tol2bus.snoop_fanout::mean            0.010739                       # Request fanout histogram
system.tol2bus.snoop_fanout::stdev           0.103602                       # Request fanout histogram
system.tol2bus.snoop_fanout::underflows             0      0.00%      0.00% # Request fanout histogram
system.tol2bus.snoop_fanout::0                 253426     98.93%     98.93% # Request fanout histogram
system.tol2bus.snoop_fanout::1                   2723      1.06%     99.99% # Request fanout histogram
system.tol2bus.snoop_fanout::2                     14      0.01%    100.00% # Request fanout histogram
system.tol2bus.snoop_fanout::overflows              0      0.00%    100.00% # Request fanout histogram
system.tol2bus.snoop_fanout::min_value              0                       # Request fanout histogram
system.tol2bus.snoop_fanout::max_value              2                       # Request fanout histogram
system.tol2bus.snoop_fanout::total             256163                       # Request fanout histogram
system.tol2bus.reqLayer0.occupancy          669830000                       # Layer occupancy (ticks)
system.tol2bus.reqLayer0.utilization              0.6                       # Layer utilization (%)
system.tol2bus.respLayer1.occupancy         648901995                       # Layer occupancy (ticks)
system.tol2bus.respLayer1.utilization             0.6                       # Layer utilization (%)
system.tol2bus.respLayer0.occupancy           3606999                       # Layer occupancy (ticks)
system.tol2bus.respLayer0.utilization             0.0                       # Layer utilization (%)
system.voltage_domain.voltage                       1                       # Voltage in Volts
system.clk_domain.clock                          1000                       # Clock period in ticks
system.l2.pwrStateResidencyTicks::UNDEFINED 117661588000                       # Cumulative time (in ticks) in various power states
system.l2.demand_hits::.cpu.inst                  685                       # number of demand (read+write) hits
system.l2.demand_hits::.cpu.data               170108                       # number of demand (read+write) hits
system.l2.demand_hits::total                   170793                       # number of demand (read+write) hits
system.l2.overall_hits::.cpu.inst                 685                       # number of overall hits
system.l2.overall_hits::.cpu.data              170108                       # number of overall hits
system.l2.overall_hits::total                  170793                       # number of overall hits
system.l2.demand_misses::.cpu.inst                517                       # number of demand (read+write) misses
system.l2.demand_misses::.cpu.data              46191                       # number of demand (read+write) misses
system.l2.demand_misses::total                  46708                       # number of demand (read+write) misses
system.l2.overall_misses::.cpu.inst               517                       # number of overall misses
system.l2.overall_misses::.cpu.data             46191                       # number of overall misses
system.l2.overall_misses::total                 46708                       # number of overall misses
system.l2.demand_miss_latency::.cpu.inst     50215000                       # number of demand (read+write) miss cycles
system.l2.demand_miss_latency::.cpu.data   4846930000                       # number of demand (read+write) miss cycles
system.l2.demand_miss_latency::total       4897145000                       # number of demand (read+write) miss cycles
system.l2.overall_miss_latency::.cpu.inst     50215000                       # number of overall miss cycles
system.l2.overall_miss_latency::.cpu.data   4846930000                       # number of overall miss cycles
system.l2.overall_miss_latency::total      4897145000                       # number of overall miss cycles
system.l2.demand_accesses::.cpu.inst             1202                       # number of demand (read+write) accesses
system.l2.demand_accesses::.cpu.data           216299                       # number of demand (read+write) accesses
system.l2.demand_accesses::total               217501                       # number of demand (read+write) accesses
system.l2.overall_accesses::.cpu.inst            1202                       # number of overall (read+write) accesses
system.l2.overall_accesses::.cpu.data          216299                       # number of overall (read+write) accesses
system.l2.overall_accesses::total              217501                       # number of overall (read+write) accesses
system.l2.demand_miss_rate::.cpu.inst        0.430116                       # miss rate for demand accesses
system.l2.demand_miss_rate::.cpu.data        0.213552                       # miss rate for demand accesses
system.l2.demand_miss_rate::total            0.214748                       # miss rate for demand accesses
system.l2.overall_miss_rate::.cpu.inst       0.430116                       # miss rate for overall accesses
system.l2.overall_miss_rate::.cpu.data       0.213552                       # miss rate for overall accesses
system.l2.overall_miss_rate::total           0.214748                       # miss rate for overall accesses
system.l2.demand_avg_miss_latency::.cpu.inst 97127.659574                       # average overall miss latency
system.l2.demand_avg_miss_latency::.cpu.data 104932.346128                       # average overall miss latency
system.l2.demand_avg_miss_latency::total 104845.957866                       # average overall miss latency
system.l2.overall_avg_miss_latency::.cpu.inst 97127.659574                       # average overall miss latency
system.l2.overall_avg_miss_latency::.cpu.data 104932.346128                       # average overall miss latency
system.l2.overall_avg_miss_latency::total 104845.957866                       # average overall miss latency
system.l2.blocked_cycles::no_mshrs                  0                       # number of cycles access was blocked
system.l2.blocked_cycles::no_targets                0                       # number of cycles access was blocked
system.l2.blocked::no_mshrs                         0                       # number of cycles access was blocked
system.l2.blocked::no_targets                       0                       # number of cycles access was blocked
system.l2.avg_blocked_cycles::no_mshrs            nan                       # average number of cycles each access was blocked
system.l2.avg_blocked_cycles::no_targets          nan                       # average number of cycles each access was blocked
system.l2.writebacks::.writebacks               37702                       # number of writebacks
system.l2.writebacks::total                     37702                       # number of writebacks
system.l2.demand_mshr_hits::.cpu.inst               1                       # number of demand (read+write) MSHR hits
system.l2.demand_mshr_hits::.cpu.data               5                       # number of demand (read+write) MSHR hits
system.l2.demand_mshr_hits::total                   6                       # number of demand (read+write) MSHR hits
system.l2.overall_mshr_hits::.cpu.inst              1                       # number of overall MSHR hits
system.l2.overall_mshr_hits::.cpu.data              5                       # number of overall MSHR hits
system.l2.overall_mshr_hits::total                  6                       # number of overall MSHR hits
system.l2.demand_mshr_misses::.cpu.inst           516                       # number of demand (read+write) MSHR misses
system.l2.demand_mshr_misses::.cpu.data         46186                       # number of demand (read+write) MSHR misses
system.l2.demand_mshr_misses::total             46702                       # number of demand (read+write) MSHR misses
system.l2.overall_mshr_misses::.cpu.inst          516                       # number of overall MSHR misses
system.l2.overall_mshr_misses::.cpu.data        46186                       # number of overall MSHR misses
system.l2.overall_mshr_misses::total            46702                       # number of overall MSHR misses
system.l2.demand_mshr_miss_latency::.cpu.inst     39815000                       # number of demand (read+write) MSHR miss cycles
system.l2.demand_mshr_miss_latency::.cpu.data   3922802000                       # number of demand (read+write) MSHR miss cycles
system.l2.demand_mshr_miss_latency::total   3962617000                       # number of demand (read+write) MSHR miss cycles
system.l2.overall_mshr_miss_latency::.cpu.inst     39815000                       # number of overall MSHR miss cycles
system.l2.overall_mshr_miss_latency::.cpu.data   3922802000                       # number of overall MSHR miss cycles
system.l2.overall_mshr_miss_latency::total   3962617000                       # number of overall MSHR miss cycles
system.l2.demand_mshr_miss_rate::.cpu.inst     0.429285                       # mshr miss rate for demand accesses
system.l2.demand_mshr_miss_rate::.cpu.data     0.213528                       # mshr miss rate for demand accesses
system.l2.demand_mshr_miss_rate::total       0.214721                       # mshr miss rate for demand accesses
system.l2.overall_mshr_miss_rate::.cpu.inst     0.429285                       # mshr miss rate for overall accesses
system.l2.overall_mshr_miss_rate::.cpu.data     0.213528                       # mshr miss rate for overall accesses
system.l2.overall_mshr_miss_rate::total      0.214721                       # mshr miss rate for overall accesses
system.l2.demand_avg_mshr_miss_latency::.cpu.inst 77160.852713                       # average overall mshr miss latency
system.l2.demand_avg_mshr_miss_latency::.cpu.data 84934.872039                       # average overall mshr miss latency
system.l2.demand_avg_mshr_miss_latency::total 84848.978630                       # average overall mshr miss latency
system.l2.overall_avg_mshr_miss_latency::.cpu.inst 77160.852713                       # average overall mshr miss latency
system.l2.overall_avg_mshr_miss_latency::.cpu.data 84934.872039                       # average overall mshr miss latency
system.l2.overall_avg_mshr_miss_latency::total 84848.978630                       # average overall mshr miss latency
system.l2.replacements                          38662                       # number of replacements
system.l2.WritebackDirty_hits::.writebacks       117134                       # number of WritebackDirty hits
system.l2.WritebackDirty_hits::total           117134                       # number of WritebackDirty hits
system.l2.WritebackDirty_accesses::.writebacks       117134                       # number of WritebackDirty accesses(hits+misses)
system.l2.WritebackDirty_accesses::total       117134                       # number of WritebackDirty accesses(hits+misses)
system.l2.WritebackClean_hits::.writebacks          755                       # number of WritebackClean hits
system.l2.WritebackClean_hits::total              755                       # number of WritebackClean hits
system.l2.WritebackClean_accesses::.writebacks          755                       # number of WritebackClean accesses(hits+misses)
system.l2.WritebackClean_accesses::total          755                       # number of WritebackClean accesses(hits+misses)
system.l2.CleanEvict_mshr_misses::.writebacks           75                       # number of CleanEvict MSHR misses
system.l2.CleanEvict_mshr_misses::total            75                       # number of CleanEvict MSHR misses
system.l2.CleanEvict_mshr_miss_rate::.writebacks          inf                       # mshr miss rate for CleanEvict accesses
system.l2.CleanEvict_mshr_miss_rate::total          inf                       # mshr miss rate for CleanEvict accesses
system.l2.ReadExReq_hits::.cpu.data              8768                       # number of ReadExReq hits
system.l2.ReadExReq_hits::total                  8768                       # number of ReadExReq hits
system.l2.ReadExReq_misses::.cpu.data           38812                       # number of ReadExReq misses
system.l2.ReadExReq_misses::total               38812                       # number of ReadExReq misses
system.l2.ReadExReq_miss_latency::.cpu.data   4040167000                       # number of ReadExReq miss cycles
system.l2.ReadExReq_miss_latency::total    4040167000                       # number of ReadExReq miss cycles
system.l2.ReadExReq_accesses::.cpu.data         47580                       # number of ReadExReq accesses(hits+misses)
system.l2.ReadExReq_accesses::total             47580                       # number of ReadExReq accesses(hits+misses)
system.l2.ReadExReq_miss_rate::.cpu.data     0.815721                       # miss rate for ReadExReq accesses
system.l2.ReadExReq_miss_rate::total         0.815721                       # miss rate for ReadExReq accesses
system.l2.ReadExReq_avg_miss_latency::.cpu.data 104095.820880                       # average ReadExReq miss latency
system.l2.ReadExReq_avg_miss_latency::total 104095.820880                       # average ReadExReq miss latency
system.l2.ReadExReq_mshr_misses::.cpu.data        38812                       # number of ReadExReq MSHR misses
system.l2.ReadExReq_mshr_misses::total          38812                       # number of ReadExReq MSHR misses
system.l2.ReadExReq_mshr_miss_latency::.cpu.data   3263927000                       # number of ReadExReq MSHR miss cycles
system.l2.ReadExReq_mshr_miss_latency::total   3263927000                       # number of ReadExReq MSHR miss cycles
system.l2.ReadExReq_mshr_miss_rate::.cpu.data     0.815721                       # mshr miss rate for ReadExReq accesses
system.l2.ReadExReq_mshr_miss_rate::total     0.815721                       # mshr miss rate for ReadExReq accesses
system.l2.ReadExReq_avg_mshr_miss_latency::.cpu.data 84095.820880                       # average ReadExReq mshr miss latency
system.l2.ReadExReq_avg_mshr_miss_latency::total 84095.820880                       # average ReadExReq mshr miss latency
system.l2.ReadCleanReq_hits::.cpu.inst            685                       # number of ReadCleanReq hits
system.l2.ReadCleanReq_hits::total                685                       # number of ReadCleanReq hits
system.l2.ReadCleanReq_misses::.cpu.inst          517                       # number of ReadCleanReq misses
system.l2.ReadCleanReq_misses::total              517                       # number of ReadCleanReq misses
system.l2.ReadCleanReq_miss_latency::.cpu.inst     50215000                       # number of ReadCleanReq miss cycles
system.l2.ReadCleanReq_miss_latency::total     50215000                       # number of ReadCleanReq miss cycles
system.l2.ReadCleanReq_accesses::.cpu.inst         1202                       # number of ReadCleanReq accesses(hits+misses)
system.l2.ReadCleanReq_accesses::total           1202                       # number of ReadCleanReq accesses(hits+misses)
system.l2.ReadCleanReq_miss_rate::.cpu.inst     0.430116                       # miss rate for ReadCleanReq accesses
system.l2.ReadCleanReq_miss_rate::total      0.430116                       # miss rate for ReadCleanReq accesses
system.l2.ReadCleanReq_avg_miss_latency::.cpu.inst 97127.659574                       # average ReadCleanReq miss latency
system.l2.ReadCleanReq_avg_miss_latency::total 97127.659574                       # average ReadCleanReq miss latency
system.l2.ReadCleanReq_mshr_hits::.cpu.inst            1                       # number of ReadCleanReq MSHR hits
system.l2.ReadCleanReq_mshr_hits::total             1                       # number of ReadCleanReq MSHR hits
system.l2.ReadCleanReq_mshr_misses::.cpu.inst          516                       # number of ReadCleanReq MSHR misses
system.l2.ReadCleanReq_mshr_misses::total          516                       # number of ReadCleanReq MSHR misses
system.l2.ReadCleanReq_mshr_miss_latency::.cpu.inst     39815000                       # number of ReadCleanReq MSHR miss cycles
system.l2.ReadCleanReq_mshr_miss_latency::total     39815000                       # number of ReadCleanReq MSHR miss cycles
system.l2.ReadCleanReq_mshr_miss_rate::.cpu.inst     0.429285                       # mshr miss rate for ReadCleanReq accesses
system.l2.ReadCleanReq_mshr_miss_rate::total     0.429285                       # mshr miss rate for ReadCleanReq accesses
system.l2.ReadCleanReq_avg_mshr_miss_latency::.cpu.inst 77160.852713                       # average ReadCleanReq mshr miss latency
system.l2.ReadCleanReq_avg_mshr_miss_latency::total 77160.852713                       # average ReadCleanReq mshr miss latency
system.l2.ReadSharedReq_hits::.cpu.data        161340                       # number of ReadSharedReq hits
system.l2.ReadSharedReq_hits::total            161340                       # number of ReadSharedReq hits
system.l2.ReadSharedReq_misses::.cpu.data         7379                       # number of ReadSharedReq misses
system.l2.ReadSharedReq_misses::total            7379                       # number of ReadSharedReq misses
system.l2.ReadSharedReq_miss_latency::.cpu.data    806763000                       # number of ReadSharedReq miss cycles
system.l2.ReadSharedReq_miss_latency::total    806763000                       # number of ReadSharedReq miss cycles
system.l2.ReadSharedReq_accesses::.cpu.data       168719                       # number of ReadSharedReq accesses(hits+misses)
system.l2.ReadSharedReq_accesses::total        168719                       # number of ReadSharedReq accesses(hits+misses)
system.l2.ReadSharedReq_miss_rate::.cpu.data     0.043735                       # miss rate for ReadSharedReq accesses
system.l2.ReadSharedReq_miss_rate::total     0.043735                       # miss rate for ReadSharedReq accesses
system.l2.ReadSharedReq_avg_miss_latency::.cpu.data 109332.294349                       # average ReadSharedReq miss latency
system.l2.ReadSharedReq_avg_miss_latency::total 109332.294349                       # average ReadSharedReq miss latency
system.l2.ReadSharedReq_mshr_hits::.cpu.data            5                       # number of ReadSharedReq MSHR hits
system.l2.ReadSharedReq_mshr_hits::total            5                       # number of ReadSharedReq MSHR hits
system.l2.ReadSharedReq_mshr_misses::.cpu.data         7374                       # number of ReadSharedReq MSHR misses
system.l2.ReadSharedReq_mshr_misses::total         7374                       # number of ReadSharedReq MSHR misses
system.l2.ReadSharedReq_mshr_miss_latency::.cpu.data    658875000                       # number of ReadSharedReq MSHR miss cycles
system.l2.ReadSharedReq_mshr_miss_latency::total    658875000                       # number of ReadSharedReq MSHR miss cycles
system.l2.ReadSharedReq_mshr_miss_rate::.cpu.data     0.043706                       # mshr miss rate for ReadSharedReq accesses
system.l2.ReadSharedReq_mshr_miss_rate::total     0.043706                       # mshr miss rate for ReadSharedReq accesses
system.l2.ReadSharedReq_avg_mshr_miss_latency::.cpu.data 89351.098454                       # average ReadSharedReq mshr miss latency
system.l2.ReadSharedReq_avg_mshr_miss_latency::total 89351.098454                       # average ReadSharedReq mshr miss latency
system.l2.tags.pwrStateResidencyTicks::UNDEFINED 117661588000                       # Cumulative time (in ticks) in various power states
system.l2.tags.tagsinuse                  7967.775559                       # Cycle average of tags in use
system.l2.tags.total_refs                      431909                       # Total number of references to valid blocks.
system.l2.tags.sampled_refs                     46854                       # Sample count of references to valid blocks.
system.l2.tags.avg_refs                      9.218188                       # Average number of references to valid blocks.
system.l2.tags.warmup_cycle                     87000                       # Cycle when the warmup percentage was hit.
system.l2.tags.occ_blocks::.writebacks      24.668030                       # Average occupied blocks per requestor
system.l2.tags.occ_blocks::.cpu.inst        24.800851                       # Average occupied blocks per requestor
system.l2.tags.occ_blocks::.cpu.data      7918.306678                       # Average occupied blocks per requestor
system.l2.tags.occ_percent::.writebacks      0.003011                       # Average percentage of cache occupancy
system.l2.tags.occ_percent::.cpu.inst        0.003027                       # Average percentage of cache occupancy
system.l2.tags.occ_percent::.cpu.data        0.966590                       # Average percentage of cache occupancy
system.l2.tags.occ_percent::total            0.972629                       # Average percentage of cache occupancy
system.l2.tags.occ_task_id_blocks::1024          8192                       # Occupied blocks per task id
system.l2.tags.age_task_id_blocks_1024::0            2                       # Occupied blocks per task id
system.l2.tags.age_task_id_blocks_1024::1           17                       # Occupied blocks per task id
system.l2.tags.age_task_id_blocks_1024::2          232                       # Occupied blocks per task id
system.l2.tags.age_task_id_blocks_1024::3         2445                       # Occupied blocks per task id
system.l2.tags.age_task_id_blocks_1024::4         5496                       # Occupied blocks per task id
system.l2.tags.occ_task_id_percent::1024            1                       # Percentage of cache occupancy per task id
system.l2.tags.tag_accesses                    910834                       # Number of tag accesses
system.l2.tags.data_accesses                   910834                       # Number of data accesses
system.cpu_voltage_domain.voltage                   1                       # Voltage in Volts
system.mem_ctrls.pwrStateResidencyTicks::UNDEFINED 117661588000                       # Cumulative time (in ticks) in various power states
system.mem_ctrls.bytes_read::.cpu.inst          33024                       # Number of bytes read from this memory
system.mem_ctrls.bytes_read::.cpu.data        2955904                       # Number of bytes read from this memory
system.mem_ctrls.bytes_read::total            2988928                       # Number of bytes read from this memory
system.mem_ctrls.bytes_inst_read::.cpu.inst        33024                       # Number of instructions bytes read from this memory
system.mem_ctrls.bytes_inst_read::total         33024                       # Number of instructions bytes read from this memory
system.mem_ctrls.bytes_written::.writebacks      2412928                       # Number of bytes written to this memory
system.mem_ctrls.bytes_written::total         2412928                       # Number of bytes written to this memory
system.mem_ctrls.num_reads::.cpu.inst             516                       # Number of read requests responded to by this memory
system.mem_ctrls.num_reads::.cpu.data           46186                       # Number of read requests responded to by this memory
system.mem_ctrls.num_reads::total               46702                       # Number of read requests responded to by this memory
system.mem_ctrls.num_writes::.writebacks        37702                       # Number of write requests responded to by this memory
system.mem_ctrls.num_writes::total              37702                       # Number of write requests responded to by this memory
system.mem_ctrls.bw_read::.cpu.inst            280669                       # Total read bandwidth from this memory (bytes/s)
system.mem_ctrls.bw_read::.cpu.data          25122081                       # Total read bandwidth from this memory (bytes/s)
system.mem_ctrls.bw_read::total              25402751                       # Total read bandwidth from this memory (bytes/s)
system.mem_ctrls.bw_inst_read::.cpu.inst       280669                       # Instruction read bandwidth from this memory (bytes/s)
system.mem_ctrls.bw_inst_read::total           280669                       # Instruction read bandwidth from this memory (bytes/s)
system.mem_ctrls.bw_write::.writebacks       20507355                       # Write bandwidth from this memory (bytes/s)
system.mem_ctrls.bw_write::total             20507355                       # Write bandwidth from this memory (bytes/s)
system.mem_ctrls.bw_total::.writebacks       20507355                       # Total bandwidth to/from this memory (bytes/s)
system.mem_ctrls.bw_total::.cpu.inst           280669                       # Total bandwidth to/from this memory (bytes/s)
system.mem_ctrls.bw_total::.cpu.data         25122081                       # Total bandwidth to/from this memory (bytes/s)
system.mem_ctrls.bw_total::total             45910106                       # Total bandwidth to/from this memory (bytes/s)
system.mem_ctrls.avgPriority_.writebacks::samples     37702.00                       # Average QoS priority value for accepted requests
system.mem_ctrls.avgPriority_.cpu.inst::samples       516.00                       # Average QoS priority value for accepted requests
system.mem_ctrls.avgPriority_.cpu.data::samples     46168.00                       # Average QoS priority value for accepted requests
system.mem_ctrls.priorityMinLatency      0.000000018750                       # per QoS priority minimum request to response latency (s)
system.mem_ctrls.priorityMaxLatency      0.002954262500                       # per QoS priority maximum request to response latency (s)
system.mem_ctrls.numReadWriteTurnArounds         2115                       # Number of turnarounds from READ to WRITE
system.mem_ctrls.numWriteReadTurnArounds         2115                       # Number of turnarounds from WRITE to READ
system.mem_ctrls.numStayReadState              160698                       # Number of times bus staying in READ state
system.mem_ctrls.numStayWriteState              35633                       # Number of times bus staying in WRITE state
system.mem_ctrls.readReqs                       46702                       # Number of read requests accepted
system.mem_ctrls.writeReqs                      37702                       # Number of write requests accepted
system.mem_ctrls.readBursts                     46702                       # Number of DRAM read bursts, including those serviced by the write queue
system.mem_ctrls.writeBursts                    37702                       # Number of DRAM write bursts, including those merged in the write queue
system.mem_ctrls.servicedByWrQ                     18                       # Number of DRAM read bursts serviced by the write queue
system.mem_ctrls.mergedWrBursts                     0                       # Number of DRAM write bursts merged with an existing one
system.mem_ctrls.neitherReadNorWriteReqs            0                       # Number of requests that are neither read nor write
system.mem_ctrls.perBankRdBursts::0              2889                       # Per bank write bursts
system.mem_ctrls.perBankRdBursts::1              2759                       # Per bank write bursts
system.mem_ctrls.perBankRdBursts::2              2746                       # Per bank write bursts
system.mem_ctrls.perBankRdBursts::3              3089                       # Per bank write bursts
system.mem_ctrls.perBankRdBursts::4              3301                       # Per bank write bursts
system.mem_ctrls.perBankRdBursts::5              2858                       # Per bank write bursts
system.mem_ctrls.perBankRdBursts::6              2872                       # Per bank write bursts
system.mem_ctrls.perBankRdBursts::7              2894                       # Per bank write bursts
system.mem_ctrls.perBankRdBursts::8              2881                       # Per bank write bursts
system.mem_ctrls.perBankRdBursts::9              2908                       # Per bank write bursts
system.mem_ctrls.perBankRdBursts::10             2900                       # Per bank write bursts
system.mem_ctrls.perBankRdBursts::11             2939                       # Per bank write bursts
system.mem_ctrls.perBankRdBursts::12             2932                       # Per bank write bursts
system.mem_ctrls.perBankRdBursts::13             2878                       # Per bank write bursts
system.mem_ctrls.perBankRdBursts::14             2955                       # Per bank write bursts
system.mem_ctrls.perBankRdBursts::15             2883                       # Per bank write bursts
system.mem_ctrls.perBankWrBursts::0              2325                       # Per bank write bursts
system.mem_ctrls.perBankWrBursts::1              2217                       # Per bank write bursts
system.mem_ctrls.perBankWrBursts::2              2218                       # Per bank write bursts
system.mem_ctrls.perBankWrBursts::3              2434                       # Per bank write bursts
system.mem_ctrls.perBankWrBursts::4              2617                       # Per bank write bursts
system.mem_ctrls.perBankWrBursts::5              2345                       # Per bank write bursts
system.mem_ctrls.perBankWrBursts::6              2360                       # Per bank write bursts
system.mem_ctrls.perBankWrBursts::7              2355                       # Per bank write bursts
system.mem_ctrls.perBankWrBursts::8              2345                       # Per bank write bursts
system.mem_ctrls.perBankWrBursts::9              2340                       # Per bank write bursts
system.mem_ctrls.perBankWrBursts::10             2350                       # Per bank write bursts
system.mem_ctrls.perBankWrBursts::11             2366                       # Per bank write bursts
system.mem_ctrls.perBankWrBursts::12             2368                       # Per bank write bursts
system.mem_ctrls.perBankWrBursts::13             2339                       # Per bank write bursts
system.mem_ctrls.perBankWrBursts::14             2369                       # Per bank write bursts
system.mem_ctrls.perBankWrBursts::15             2339                       # Per bank write bursts
system.mem_ctrls.avgRdQLen                       1.05                       # Average read queue length when enqueuing
system.mem_ctrls.avgWrQLen                      24.09                       # Average write queue length when enqueuing
system.mem_ctrls.totQLat                    686507500                       # Total ticks spent queuing
system.mem_ctrls.totBusLat                  233420000                       # Total ticks spent in databus transfers
system.mem_ctrls.totMemAccLat              1561832500                       # Total ticks spent from burst creation until serviced by the DRAM
system.mem_ctrls.avgQLat                     14705.41                       # Average queueing delay per DRAM burst
system.mem_ctrls.avgBusLat                    5000.00                       # Average bus latency per DRAM burst
system.mem_ctrls.avgMemAccLat                33455.41                       # Average memory access latency per DRAM burst
system.mem_ctrls.numRdRetry                         0                       # Number of times read queue was full causing retry
system.mem_ctrls.numWrRetry                         0                       # Number of times write queue was full causing retry
system.mem_ctrls.readRowHits                    18378                       # Number of row buffer hits during reads
system.mem_ctrls.writeRowHits                   27858                       # Number of row buffer hits during writes
system.mem_ctrls.readRowHitRate                 39.37                       # Row buffer hit rate for reads
system.mem_ctrls.writeRowHitRate                73.89                       # Row buffer hit rate for writes
system.mem_ctrls.readPktSize::0                     0                       # Read request sizes (log2)
system.mem_ctrls.readPktSize::1                     0                       # Read request sizes (log2)
system.mem_ctrls.readPktSize::2                     0                       # Read request sizes (log2)
system.mem_ctrls.readPktSize::3                     0                       # Read request sizes (log2)
system.mem_ctrls.readPktSize::4                     0                       # Read request sizes (log2)
system.mem_ctrls.readPktSize::5                     0                       # Read request sizes (log2)
system.mem_ctrls.readPktSize::6                 46702                       # Read request sizes (log2)
system.mem_ctrls.writePktSize::0                    0                       # Write request sizes (log2)
system.mem_ctrls.writePktSize::1                    0                       # Write request sizes (log2)
system.mem_ctrls.writePktSize::2                    0                       # Write request sizes (log2)
system.mem_ctrls.writePktSize::3                    0                       # Write request sizes (log2)
system.mem_ctrls.writePktSize::4                    0                       # Write request sizes (log2)
system.mem_ctrls.writePktSize::5                    0                       # Write request sizes (log2)
system.mem_ctrls.writePktSize::6                37702                       # Write request sizes (log2)
system.mem_ctrls.rdQLenPdf::0                   44813                       # What read queue length does an incoming req see
system.mem_ctrls.rdQLenPdf::1                    1865                       # What read queue length does an incoming req see
system.mem_ctrls.rdQLenPdf::2                       6                       # What read queue length does an incoming req see
system.mem_ctrls.rdQLenPdf::3                       0                       # What read queue length does an incoming req see
system.mem_ctrls.rdQLenPdf::4                       0                       # What read queue length does an incoming req see
system.mem_ctrls.rdQLenPdf::5                       0                       # What read queue length does an incoming req see
system.mem_ctrls.rdQLenPdf::6                       0                       # What read queue length does an incoming req see
system.mem_ctrls.rdQLenPdf::7                       0                       # What read queue length does an incoming req see
system.mem_ctrls.rdQLenPdf::8                       0                       # What read queue length does an incoming req see
system.mem_ctrls.rdQLenPdf::9                       0                       # What read queue length does an incoming req see
system.mem_ctrls.rdQLenPdf::10                      0                       # What read queue length does an incoming req see
system.mem_ctrls.rdQLenPdf::11                      0                       # What read queue length does an incoming req see
system.mem_ctrls.rdQLenPdf::12                      0                       # What read queue length does an incoming req see
system.mem_ctrls.rdQLenPdf::13                      0                       # What read queue length does an incoming req see
system.mem_ctrls.rdQLenPdf::14                      0                       # What read queue length does an incoming req see
system.mem_ctrls.rdQLenPdf::15                      0                       # What read queue length does an incoming req see
system.mem_ctrls.rdQLenPdf::16                      0                       # What read queue length does an incoming req see
system.mem_ctrls.rdQLenPdf::17                      0                       # What read queue length does an incoming req see
system.mem_ctrls.rdQLenPdf::18                      0                       # What read queue length does an incoming req see
system.mem_ctrls.rdQLenPdf::19                      0                       # What read queue length does an incoming req see
system.mem_ctrls.rdQLenPdf::20                      0                       # What read queue length does an incoming req see
system.mem_ctrls.rdQLenPdf::21                      0                       # What read queue length does an incoming req see
system.mem_ctrls.rdQLenPdf::22                      0                       # What read queue length does an incoming req see
system.mem_ctrls.rdQLenPdf::23                      0                       # What read queue length does an incoming req see
system.mem_ctrls.rdQLenPdf::24                      0                       # What read queue length does an incoming req see
system.mem_ctrls.rdQLenPdf::25                      0                       # What read queue length does an incoming req see
system.mem_ctrls.rdQLenPdf::26                      0                       # What read queue length does an incoming req see
system.mem_ctrls.rdQLenPdf::27                      0                       # What read queue length does an incoming req see
system.mem_ctrls.rdQLenPdf::28                      0                       # What read queue length does an incoming req see
system.mem_ctrls.rdQLenPdf::29                      0                       # What read queue length does an incoming req see
system.mem_ctrls.rdQLenPdf::30                      0                       # What read queue length does an incoming req see
system.mem_ctrls.rdQLenPdf::31                      0                       # What read queue length does an incoming req see
system.mem_ctrls.wrQLenPdf::0                       1                       # What write queue length does an incoming req see
system.mem_ctrls.wrQLenPdf::1                       1                       # What write queue length does an incoming req see
system.mem_ctrls.wrQLenPdf::2                       1                       # What write queue length does an incoming req see
system.mem_ctrls.wrQLenPdf::3                       1                       # What write queue length does an incoming req see
system.mem_ctrls.wrQLenPdf::4                       1                       # What write queue length does an incoming req see
system.mem_ctrls.wrQLenPdf::5                       1                       # What write queue length does an incoming req see
system.mem_ctrls.wrQLenPdf::6                       1                       # What write queue length does an incoming req see
system.mem_ctrls.wrQLenPdf::7                       1                       # What write queue length does an incoming req see
system.mem_ctrls.wrQLenPdf::8                       1                       # What write queue length does an incoming req see
system.mem_ctrls.wrQLenPdf::9                       1                       # What write queue length does an incoming req see
system.mem_ctrls.wrQLenPdf::10                      1                       # What write queue length does an incoming req see
system.mem_ctrls.wrQLenPdf::11                      1                       # What write queue length does an incoming req see
system.mem_ctrls.wrQLenPdf::12                      1                       # What write queue length does an incoming req see
system.mem_ctrls.wrQLenPdf::13                      1                       # What write queue length does an incoming req see
system.mem_ctrls.wrQLenPdf::14                      1                       # What write queue length does an incoming req see
system.mem_ctrls.wrQLenPdf::15                   1835                       # What write queue length does an incoming req see
system.mem_ctrls.wrQLenPdf::16                   1839                       # What write queue length does an incoming req see
system.mem_ctrls.wrQLenPdf::17                   2113                       # What write queue length does an incoming req see
system.mem_ctrls.wrQLenPdf::18                   2120                       # What write queue length does an incoming req see
system.mem_ctrls.wrQLenPdf::19                   2117                       # What write queue length does an incoming req see
system.mem_ctrls.wrQLenPdf::20                   2124                       # What write queue length does an incoming req see
system.mem_ctrls.wrQLenPdf::21                   2123                       # What write queue length does an incoming req see
system.mem_ctrls.wrQLenPdf::22                   2134                       # What write queue length does an incoming req see
system.mem_ctrls.wrQLenPdf::23                   2145                       # What write queue length does an incoming req see
system.mem_ctrls.wrQLenPdf::24                   2125                       # What write queue length does an incoming req see
system.mem_ctrls.wrQLenPdf::25                   2132                       # What write queue length does an incoming req see
system.mem_ctrls.wrQLenPdf::26                   2122                       # What write queue length does an incoming req see
system.mem_ctrls.wrQLenPdf::27                   2135                       # What write queue length does an incoming req see
system.mem_ctrls.wrQLenPdf::28                   2150                       # What write queue length does an incoming req see
system.mem_ctrls.wrQLenPdf::29                   2125                       # What write queue length does an incoming req see
system.mem_ctrls.wrQLenPdf::30                   2116                       # What write queue length does an incoming req see
system.mem_ctrls.wrQLenPdf::31                   2115                       # What write queue length does an incoming req see
system.mem_ctrls.wrQLenPdf::32                   2115                       # What write queue length does an incoming req see
system.mem_ctrls.wrQLenPdf::33                      2                       # What write queue length does an incoming req see
system.mem_ctrls.wrQLenPdf::34                      0                       # What write queue length does an incoming req see
system.mem_ctrls.wrQLenPdf::35                      0                       # What write queue length does an incoming req see
system.mem_ctrls.wrQLenPdf::36                      0                       # What write queue length does an incoming req see
system.mem_ctrls.wrQLenPdf::37                      0                       # What write queue length does an incoming req see
system.mem_ctrls.wrQLenPdf::38                      0                       # What write queue length does an incoming req see
system.mem_ctrls.wrQLenPdf::39                      0                       # What write queue length does an incoming req see
system.mem_ctrls.wrQLenPdf::40                      0                       # What write queue length does an incoming req see
system.mem_ctrls.wrQLenPdf::41                      0                       # What write queue length does an incoming req see
system.mem_ctrls.wrQLenPdf::42                      0                       # What write queue length does an incoming req see
system.mem_ctrls.wrQLenPdf::43                      0                       # What write queue length does an incoming req see
system.mem_ctrls.wrQLenPdf::44                      0                       # What write queue length does an incoming req see
system.mem_ctrls.wrQLenPdf::45                      0                       # What write queue length does an incoming req see
system.mem_ctrls.wrQLenPdf::46                      0                       # What write queue length does an incoming req see
system.mem_ctrls.wrQLenPdf::47                      0                       # What write queue length does an incoming req see
system.mem_ctrls.wrQLenPdf::48                      0                       # What write queue length does an incoming req see
system.mem_ctrls.wrQLenPdf::49                      0                       # What write queue length does an incoming req see
system.mem_ctrls.wrQLenPdf::50                      0                       # What write queue length does an incoming req see
system.mem_ctrls.wrQLenPdf::51                      0                       # What write queue length does an incoming req see
system.mem_ctrls.wrQLenPdf::52                      0                       # What write queue length does an incoming req see
system.mem_ctrls.wrQLenPdf::53                      0                       # What write queue length does an incoming req see
system.mem_ctrls.wrQLenPdf::54                      0                       # What write queue length does an incoming req see
system.mem_ctrls.wrQLenPdf::55                      0                       # What write queue length does an incoming req see
system.mem_ctrls.wrQLenPdf::56                      0                       # What write queue length does an incoming req see
system.mem_ctrls.wrQLenPdf::57                      0                       # What write queue length does an incoming req see
system.mem_ctrls.wrQLenPdf::58                      0                       # What write queue length does an incoming req see
system.mem_ctrls.wrQLenPdf::59                      0                       # What write queue length does an incoming req see
system.mem_ctrls.wrQLenPdf::60                      0                       # What write queue length does an incoming req see
system.mem_ctrls.wrQLenPdf::61                      0                       # What write queue length does an incoming req see
system.mem_ctrls.wrQLenPdf::62                      0                       # What write queue length does an incoming req see
system.mem_ctrls.wrQLenPdf::63                      0                       # What write queue length does an incoming req see
system.mem_ctrls.bytesPerActivate::samples        38134                       # Bytes accessed per row activation
system.mem_ctrls.bytesPerActivate::mean    141.595846                       # Bytes accessed per row activation
system.mem_ctrls.bytesPerActivate::gmean   103.507315                       # Bytes accessed per row activation
system.mem_ctrls.bytesPerActivate::stdev   167.691498                       # Bytes accessed per row activation
system.mem_ctrls.bytesPerActivate::0-127        21490     56.35%     56.35% # Bytes accessed per row activation
system.mem_ctrls.bytesPerActivate::128-255        12111     31.76%     88.11% # Bytes accessed per row activation
system.mem_ctrls.bytesPerActivate::256-383         2265      5.94%     94.05% # Bytes accessed per row activation
system.mem_ctrls.bytesPerActivate::384-511          496      1.30%     95.35% # Bytes accessed per row activation
system.mem_ctrls.bytesPerActivate::512-639          359      0.94%     96.29% # Bytes accessed per row activation
system.mem_ctrls.bytesPerActivate::640-767          293      0.77%     97.06% # Bytes accessed per row activation
system.mem_ctrls.bytesPerActivate::768-895          303      0.79%     97.86% # Bytes accessed per row activation
system.mem_ctrls.bytesPerActivate::896-1023          354      0.93%     98.79% # Bytes accessed per row activation
system.mem_ctrls.bytesPerActivate::1024-1151          463      1.21%    100.00% # Bytes accessed per row activation
system.mem_ctrls.bytesPerActivate::total        38134                       # Bytes accessed per row activation
system.mem_ctrls.rdPerTurnAround::samples         2115                       # Reads before turning the bus around for writes
system.mem_ctrls.rdPerTurnAround::mean      22.072813                       # Reads before turning the bus around for writes
system.mem_ctrls.rdPerTurnAround::gmean     19.154654                       # Reads before turning the bus around for writes
system.mem_ctrls.rdPerTurnAround::stdev     83.594102                       # Reads before turning the bus around for writes
system.mem_ctrls.rdPerTurnAround::0-127          2110     99.76%     99.76% # Reads before turning the bus around for writes
system.mem_ctrls.rdPerTurnAround::128-255            1      0.05%     99.81% # Reads before turning the bus around for writes
[...]
system.cpu.icache.tags.occ_percent::total     0.433183                       # Average percentage of cache occupancy
system.cpu.icache.tags.occ_task_id_blocks::1024          444                       # Occupied blocks per task id
system.cpu.icache.tags.age_task_id_blocks_1024::3            5                       # Occupied blocks per task id
system.cpu.icache.tags.age_task_id_blocks_1024::4          439                       # Occupied blocks per task id
system.cpu.icache.tags.occ_task_id_percent::1024     0.433594                       # Percentage of cache occupancy per task id
system.cpu.icache.tags.tag_accesses          28720724                       # Number of tag accesses
system.cpu.icache.tags.data_accesses         28720724                       # Number of data accesses
system.cpu.dtb.walker.pwrStateResidencyTicks::UNDEFINED 117661588000                       # Cumulative time (in ticks) in various power states
system.cpu.dtb.stage2_mmu.stage2_tlb.walker.pwrStateResidencyTicks::UNDEFINED 117661588000                       # Cumulative time (in ticks) in various power states
system.cpu.dcache.pwrStateResidencyTicks::UNDEFINED 117661588000                       # Cumulative time (in ticks) in various power states
system.cpu.dcache.demand_hits::.cpu.data     35487811                       # number of demand (read+write) hits
system.cpu.dcache.demand_hits::total         35487811                       # number of demand (read+write) hits
system.cpu.dcache.overall_hits::.cpu.data     35491073                       # number of overall hits
system.cpu.dcache.overall_hits::total        35491073                       # number of overall hits
system.cpu.dcache.demand_misses::.cpu.data       249481                       # number of demand (read+write) misses
system.cpu.dcache.demand_misses::total         249481                       # number of demand (read+write) misses
system.cpu.dcache.overall_misses::.cpu.data       249580                       # number of overall misses
system.cpu.dcache.overall_misses::total        249580                       # number of overall misses
system.cpu.dcache.demand_miss_latency::.cpu.data  11285424000                       # number of demand (read+write) miss cycles
system.cpu.dcache.demand_miss_latency::total  11285424000                       # number of demand (read+write) miss cycles
system.cpu.dcache.overall_miss_latency::.cpu.data  11285424000                       # number of overall miss cycles
system.cpu.dcache.overall_miss_latency::total  11285424000                       # number of overall miss cycles
system.cpu.dcache.demand_accesses::.cpu.data     35737292                       # number of demand (read+write) accesses
system.cpu.dcache.demand_accesses::total     35737292                       # number of demand (read+write) accesses
system.cpu.dcache.overall_accesses::.cpu.data     35740653                       # number of overall (read+write) accesses
system.cpu.dcache.overall_accesses::total     35740653                       # number of overall (read+write) accesses
system.cpu.dcache.demand_miss_rate::.cpu.data     0.006981                       # miss rate for demand accesses
system.cpu.dcache.demand_miss_rate::total     0.006981                       # miss rate for demand accesses
system.cpu.dcache.overall_miss_rate::.cpu.data     0.006983                       # miss rate for overall accesses
system.cpu.dcache.overall_miss_rate::total     0.006983                       # miss rate for overall accesses
system.cpu.dcache.demand_avg_miss_latency::.cpu.data 45235.605116                       # average overall miss latency
system.cpu.dcache.demand_avg_miss_latency::total 45235.605116                       # average overall miss latency
system.cpu.dcache.overall_avg_miss_latency::.cpu.data 45217.661672                       # average overall miss latency
system.cpu.dcache.overall_avg_miss_latency::total 45217.661672                       # average overall miss latency
system.cpu.dcache.blocked_cycles::no_mshrs            0                       # number of cycles access was blocked
system.cpu.dcache.blocked_cycles::no_targets            0                       # number of cycles access was blocked
system.cpu.dcache.blocked::no_mshrs                 0                       # number of cycles access was blocked
system.cpu.dcache.blocked::no_targets               0                       # number of cycles access was blocked
system.cpu.dcache.avg_blocked_cycles::no_mshrs          nan                       # average number of cycles each access was blocked
system.cpu.dcache.avg_blocked_cycles::no_targets          nan                       # average number of cycles each access was blocked
system.cpu.dcache.writebacks::.writebacks       117134                       # number of writebacks
system.cpu.dcache.writebacks::total            117134                       # number of writebacks
system.cpu.dcache.demand_mshr_hits::.cpu.data        33277                       # number of demand (read+write) MSHR hits
system.cpu.dcache.demand_mshr_hits::total        33277                       # number of demand (read+write) MSHR hits
system.cpu.dcache.overall_mshr_hits::.cpu.data        33277                       # number of overall MSHR hits
system.cpu.dcache.overall_mshr_hits::total        33277                       # number of overall MSHR hits
system.cpu.dcache.demand_mshr_misses::.cpu.data       216204                       # number of demand (read+write) MSHR misses
system.cpu.dcache.demand_mshr_misses::total       216204                       # number of demand (read+write) MSHR misses
system.cpu.dcache.overall_mshr_misses::.cpu.data       216298                       # number of overall MSHR misses
system.cpu.dcache.overall_mshr_misses::total       216298                       # number of overall MSHR misses
system.cpu.dcache.demand_mshr_miss_latency::.cpu.data   9144507000                       # number of demand (read+write) MSHR miss cycles
system.cpu.dcache.demand_mshr_miss_latency::total   9144507000                       # number of demand (read+write) MSHR miss cycles
system.cpu.dcache.overall_mshr_miss_latency::.cpu.data   9148347000                       # number of overall MSHR miss cycles
system.cpu.dcache.overall_mshr_miss_latency::total   9148347000                       # number of overall MSHR miss cycles
system.cpu.dcache.demand_mshr_miss_rate::.cpu.data     0.006050                       # mshr miss rate for demand accesses
system.cpu.dcache.demand_mshr_miss_rate::total     0.006050                       # mshr miss rate for demand accesses
system.cpu.dcache.overall_mshr_miss_rate::.cpu.data     0.006052                       # mshr miss rate for overall accesses
system.cpu.dcache.overall_mshr_miss_rate::total     0.006052                       # mshr miss rate for overall accesses
system.cpu.dcache.demand_avg_mshr_miss_latency::.cpu.data 42295.734584                       # average overall mshr miss latency
system.cpu.dcache.demand_avg_mshr_miss_latency::total 42295.734584                       # average overall mshr miss latency
system.cpu.dcache.overall_avg_mshr_miss_latency::.cpu.data 42295.106751                       # average overall mshr miss latency
system.cpu.dcache.overall_avg_mshr_miss_latency::total 42295.106751                       # average overall mshr miss latency
system.cpu.dcache.replacements                 215787                       # number of replacements
system.cpu.dcache.ReadReq_hits::.cpu.data     21303636                       # number of ReadReq hits
system.cpu.dcache.ReadReq_hits::total        21303636                       # number of ReadReq hits
system.cpu.dcache.ReadReq_misses::.cpu.data       178905                       # number of ReadReq misses
system.cpu.dcache.ReadReq_misses::total        178905                       # number of ReadReq misses
system.cpu.dcache.ReadReq_miss_latency::.cpu.data   5397530000                       # number of ReadReq miss cycles
system.cpu.dcache.ReadReq_miss_latency::total   5397530000                       # number of ReadReq miss cycles
system.cpu.dcache.ReadReq_accesses::.cpu.data     21482541                       # number of ReadReq accesses(hits+misses)
system.cpu.dcache.ReadReq_accesses::total     21482541                       # number of ReadReq accesses(hits+misses)
system.cpu.dcache.ReadReq_miss_rate::.cpu.data     0.008328                       # miss rate for ReadReq accesses
system.cpu.dcache.ReadReq_miss_rate::total     0.008328                       # miss rate for ReadReq accesses
system.cpu.dcache.ReadReq_avg_miss_latency::.cpu.data 30169.810793                       # average ReadReq miss latency
system.cpu.dcache.ReadReq_avg_miss_latency::total 30169.810793                       # average ReadReq miss latency
system.cpu.dcache.ReadReq_mshr_hits::.cpu.data        10279                       # number of ReadReq MSHR hits
system.cpu.dcache.ReadReq_mshr_hits::total        10279                       # number of ReadReq MSHR hits
system.cpu.dcache.ReadReq_mshr_misses::.cpu.data       168626                       # number of ReadReq MSHR misses
system.cpu.dcache.ReadReq_mshr_misses::total       168626                       # number of ReadReq MSHR misses
system.cpu.dcache.ReadReq_mshr_miss_latency::.cpu.data   4741332000                       # number of ReadReq MSHR miss cycles
system.cpu.dcache.ReadReq_mshr_miss_latency::total   4741332000                       # number of ReadReq MSHR miss cycles
system.cpu.dcache.ReadReq_mshr_miss_rate::.cpu.data     0.007849                       # mshr miss rate for ReadReq accesses
system.cpu.dcache.ReadReq_mshr_miss_rate::total     0.007849                       # mshr miss rate for ReadReq accesses
system.cpu.dcache.ReadReq_avg_mshr_miss_latency::.cpu.data 28117.443336                       # average ReadReq mshr miss latency
system.cpu.dcache.ReadReq_avg_mshr_miss_latency::total 28117.443336                       # average ReadReq mshr miss latency
system.cpu.dcache.WriteReq_hits::.cpu.data     14184175                       # number of WriteReq hits
system.cpu.dcache.WriteReq_hits::total       14184175                       # number of WriteReq hits
system.cpu.dcache.WriteReq_misses::.cpu.data        70576                       # number of WriteReq misses
system.cpu.dcache.WriteReq_misses::total        70576                       # number of WriteReq misses
system.cpu.dcache.WriteReq_miss_latency::.cpu.data   5887894000                       # number of WriteReq miss cycles
system.cpu.dcache.WriteReq_miss_latency::total   5887894000                       # number of WriteReq miss cycles
system.cpu.dcache.WriteReq_accesses::.cpu.data     14254751                       # number of WriteReq accesses(hits+misses)
system.cpu.dcache.WriteReq_accesses::total     14254751                       # number of WriteReq accesses(hits+misses)
system.cpu.dcache.WriteReq_miss_rate::.cpu.data     0.004951                       # miss rate for WriteReq accesses
system.cpu.dcache.WriteReq_miss_rate::total     0.004951                       # miss rate for WriteReq accesses
system.cpu.dcache.WriteReq_avg_miss_latency::.cpu.data 83426.292224                       # average WriteReq miss latency
system.cpu.dcache.WriteReq_avg_miss_latency::total 83426.292224                       # average WriteReq miss latency
system.cpu.dcache.WriteReq_mshr_hits::.cpu.data        22998                       # number of WriteReq MSHR hits
system.cpu.dcache.WriteReq_mshr_hits::total        22998                       # number of WriteReq MSHR hits
system.cpu.dcache.WriteReq_mshr_misses::.cpu.data        47578                       # number of WriteReq MSHR misses
system.cpu.dcache.WriteReq_mshr_misses::total        47578                       # number of WriteReq MSHR misses
system.cpu.dcache.WriteReq_mshr_miss_latency::.cpu.data   4403175000                       # number of WriteReq MSHR miss cycles
system.cpu.dcache.WriteReq_mshr_miss_latency::total   4403175000                       # number of WriteReq MSHR miss cycles
system.cpu.dcache.WriteReq_mshr_miss_rate::.cpu.data     0.003338                       # mshr miss rate for WriteReq accesses
system.cpu.dcache.WriteReq_mshr_miss_rate::total     0.003338                       # mshr miss rate for WriteReq accesses
system.cpu.dcache.WriteReq_avg_mshr_miss_latency::.cpu.data 92546.450040                       # average WriteReq mshr miss latency
system.cpu.dcache.WriteReq_avg_mshr_miss_latency::total 92546.450040                       # average WriteReq mshr miss latency
system.cpu.dcache.SoftPFReq_hits::.cpu.data         3262                       # number of SoftPFReq hits
system.cpu.dcache.SoftPFReq_hits::total          3262                       # number of SoftPFReq hits
system.cpu.dcache.SoftPFReq_misses::.cpu.data           99                       # number of SoftPFReq misses
system.cpu.dcache.SoftPFReq_misses::total           99                       # number of SoftPFReq misses
system.cpu.dcache.SoftPFReq_accesses::.cpu.data         3361                       # number of SoftPFReq accesses(hits+misses)
system.cpu.dcache.SoftPFReq_accesses::total         3361                       # number of SoftPFReq accesses(hits+misses)
system.cpu.dcache.SoftPFReq_miss_rate::.cpu.data     0.029456                       # miss rate for SoftPFReq accesses
system.cpu.dcache.SoftPFReq_miss_rate::total     0.029456                       # miss rate for SoftPFReq accesses
system.cpu.dcache.SoftPFReq_mshr_misses::.cpu.data           94                       # number of SoftPFReq MSHR misses
system.cpu.dcache.SoftPFReq_mshr_misses::total           94                       # number of SoftPFReq MSHR misses
system.cpu.dcache.SoftPFReq_mshr_miss_latency::.cpu.data      3840000                       # number of SoftPFReq MSHR miss cycles
system.cpu.dcache.SoftPFReq_mshr_miss_latency::total      3840000                       # number of SoftPFReq MSHR miss cycles
system.cpu.dcache.SoftPFReq_mshr_miss_rate::.cpu.data     0.027968                       # mshr miss rate for SoftPFReq accesses
system.cpu.dcache.SoftPFReq_mshr_miss_rate::total     0.027968                       # mshr miss rate for SoftPFReq accesses
system.cpu.dcache.SoftPFReq_avg_mshr_miss_latency::.cpu.data 40851.063830                       # average SoftPFReq mshr miss latency
system.cpu.dcache.SoftPFReq_avg_mshr_miss_latency::total 40851.063830                       # average SoftPFReq mshr miss latency
system.cpu.dcache.LoadLockedReq_hits::.cpu.data        89081                       # number of LoadLockedReq hits
system.cpu.dcache.LoadLockedReq_hits::total        89081                       # number of LoadLockedReq hits
system.cpu.dcache.LoadLockedReq_misses::.cpu.data            1                       # number of LoadLockedReq misses
system.cpu.dcache.LoadLockedReq_misses::total            1                       # number of LoadLockedReq misses
system.cpu.dcache.LoadLockedReq_miss_latency::.cpu.data        26000                       # number of LoadLockedReq miss cycles
system.cpu.dcache.LoadLockedReq_miss_latency::total        26000                       # number of LoadLockedReq miss cycles
system.cpu.dcache.LoadLockedReq_accesses::.cpu.data        89082                       # number of LoadLockedReq accesses(hits+misses)
system.cpu.dcache.LoadLockedReq_accesses::total        89082                       # number of LoadLockedReq accesses(hits+misses)
system.cpu.dcache.LoadLockedReq_miss_rate::.cpu.data     0.000011                       # miss rate for LoadLockedReq accesses
system.cpu.dcache.LoadLockedReq_miss_rate::total     0.000011                       # miss rate for LoadLockedReq accesses
system.cpu.dcache.LoadLockedReq_avg_miss_latency::.cpu.data        26000                       # average LoadLockedReq miss latency
system.cpu.dcache.LoadLockedReq_avg_miss_latency::total        26000                       # average LoadLockedReq miss latency
system.cpu.dcache.LoadLockedReq_mshr_misses::.cpu.data            1                       # number of LoadLockedReq MSHR misses
system.cpu.dcache.LoadLockedReq_mshr_misses::total            1                       # number of LoadLockedReq MSHR misses
system.cpu.dcache.LoadLockedReq_mshr_miss_latency::.cpu.data        24000                       # number of LoadLockedReq MSHR miss cycles
system.cpu.dcache.LoadLockedReq_mshr_miss_latency::total        24000                       # number of LoadLockedReq MSHR miss cycles
system.cpu.dcache.LoadLockedReq_mshr_miss_rate::.cpu.data     0.000011                       # mshr miss rate for LoadLockedReq accesses
system.cpu.dcache.LoadLockedReq_mshr_miss_rate::total     0.000011                       # mshr miss rate for LoadLockedReq accesses
system.cpu.dcache.LoadLockedReq_avg_mshr_miss_latency::.cpu.data        24000                       # average LoadLockedReq mshr miss latency
system.cpu.dcache.LoadLockedReq_avg_mshr_miss_latency::total        24000                       # average LoadLockedReq mshr miss latency
system.cpu.dcache.StoreCondReq_hits::.cpu.data        89082                       # number of StoreCondReq hits
system.cpu.dcache.StoreCondReq_hits::total        89082                       # number of StoreCondReq hits
system.cpu.dcache.StoreCondReq_accesses::.cpu.data        89082                       # number of StoreCondReq accesses(hits+misses)
system.cpu.dcache.StoreCondReq_accesses::total        89082                       # number of StoreCondReq accesses(hits+misses)
system.cpu.dcache.tags.pwrStateResidencyTicks::UNDEFINED 117661588000                       # Cumulative time (in ticks) in various power states
system.cpu.dcache.tags.tagsinuse           511.005812                       # Cycle average of tags in use
system.cpu.dcache.tags.total_refs            35885535                       # Total number of references to valid blocks.
system.cpu.dcache.tags.sampled_refs            216299                       # Sample count of references to valid blocks.
system.cpu.dcache.tags.avg_refs            165.907078                       # Average number of references to valid blocks.
system.cpu.dcache.tags.warmup_cycle            240000                       # Cycle when the warmup percentage was hit.
system.cpu.dcache.tags.occ_blocks::.cpu.data   511.005812                       # Average occupied blocks per requestor
system.cpu.dcache.tags.occ_percent::.cpu.data     0.998058                       # Average percentage of cache occupancy
system.cpu.dcache.tags.occ_percent::total     0.998058                       # Average percentage of cache occupancy
system.cpu.dcache.tags.occ_task_id_blocks::1024          512                       # Occupied blocks per task id
system.cpu.dcache.tags.age_task_id_blocks_1024::0            6                       # Occupied blocks per task id
system.cpu.dcache.tags.age_task_id_blocks_1024::1           35                       # Occupied blocks per task id
system.cpu.dcache.tags.age_task_id_blocks_1024::2          221                       # Occupied blocks per task id
system.cpu.dcache.tags.age_task_id_blocks_1024::3          250                       # Occupied blocks per task id
system.cpu.dcache.tags.occ_task_id_percent::1024            1                       # Percentage of cache occupancy per task id
system.cpu.dcache.tags.tag_accesses          36135116                       # Number of tag accesses
system.cpu.dcache.tags.data_accesses         36135116                       # Number of data accesses
system.cpu.itb.walker.pwrStateResidencyTicks::UNDEFINED 117661588000                       # Cumulative time (in ticks) in various power states
system.cpu.itb.stage2_mmu.stage2_tlb.walker.pwrStateResidencyTicks::UNDEFINED 117661588000                       # Cumulative time (in ticks) in various power states

---------- End Simulation Statistics   ----------
