
---------- Begin Simulation Statistics ----------
final_tick                               114262385000                       # Number of ticks from beginning of simulation (restored from checkpoints and never reset)
host_inst_rate                                 230800                       # Simulator instruction rate (inst/s)
host_mem_usage                                 686776                       # Number of bytes of host memory used
host_op_rate                                   252569                       # Simulator op (including micro ops) rate (op/s)
host_seconds                                   433.28                       # Real time elapsed on the host
host_tick_rate                              263717160                       # Simulator tick rate (ticks/s)
sim_freq                                 1000000000000                       # Frequency of simulated ticks
sim_insts                                   100000001                       # Number of instructions simulated
sim_ops                                     109431937                       # Number of ops (including micro ops) simulated
sim_seconds                                  0.114262                       # Number of seconds simulated
sim_ticks                                114262385000                       # Number of ticks simulated
system.cpu.branchPred.BTBCorrect                    0                       # Number of correct BTB predictions (this stat may not work properly.
system.cpu.branchPred.BTBHitPct             87.596990                       # BTB Hit Percentage
system.cpu.branchPred.BTBHits                 8748074                       # Number of BTB hits
system.cpu.branchPred.BTBLookups              9986729                       # Number of BTB lookups
system.cpu.branchPred.RASInCorrect                348                       # Number of incorrect RAS predictions.
system.cpu.branchPred.condIncorrect            155024                       # Number of conditional branches incorrect
system.cpu.branchPred.condPredicted          16528261                       # Number of conditional branches predicted
system.cpu.branchPred.indirectHits             300026                       # Number of indirect target hits.
system.cpu.branchPred.indirectLookups          540256                       # Number of indirect predictor lookups.
system.cpu.branchPred.indirectMisses           240230                       # Number of indirect misses.
system.cpu.branchPred.lookups                20635688                       # Number of BP lookups
system.cpu.branchPred.usedRAS                 1050691                       # Number of times the RAS was used to get a target.
system.cpu.branchPredindirectMispredicted         1210                       # Number of mispredicted indirect branches.
system.cpu.committedInsts                   100000001                       # Number of instructions committed
system.cpu.committedOps                     109431937                       # Number of ops (including micro ops) committed
system.cpu.cpi                               1.142624                       # CPI: cycles per instruction
system.cpu.discardedOps                        732478                       # Number of ops (including micro ops) which were discarded before commit
system.cpu.dtb.accesses                             0                       # DTB accesses
system.cpu.dtb.align_faults                         0                       # Number of TLB faults due to alignment restrictions
system.cpu.dtb.domain_faults                        0                       # Number of TLB faults due to domain restrictions
system.cpu.dtb.flush_entries                        0                       # Number of entries that have been flushed from TLB
system.cpu.dtb.flush_tlb                            0                       # Number of times complete TLB was flushed
system.cpu.dtb.flush_tlb_asid                       0                       # Number of times TLB was flushed by ASID
system.cpu.dtb.flush_tlb_mva                        0                       # Number of times TLB was flushed by MVA
system.cpu.dtb.flush_tlb_mva_asid                   0                       # Number of times TLB was flushed by MVA & ASID
system.cpu.dtb.hits                                 0                       # DTB hits
system.cpu.dtb.inst_accesses                        0                       # ITB inst accesses
system.cpu.dtb.inst_hits                            0                       # ITB inst hits
system.cpu.dtb.inst_misses                          0                       # ITB inst misses
system.cpu.dtb.misses                               0                       # DTB misses
system.cpu.dtb.perms_faults                         0                       # Number of TLB faults due to permissions restrictions
system.cpu.dtb.prefetch_faults                      0                       # Number of TLB faults due to prefetch
system.cpu.dtb.read_accesses                        0                       # DTB read accesses
system.cpu.dtb.read_hits                            0                       # DTB read hits
system.cpu.dtb.read_misses                          0                       # DTB read misses
system.cpu.dtb.stage2_mmu.stage2_tlb.accesses            0                       # DTB accesses
system.cpu.dtb.stage2_mmu.stage2_tlb.align_faults            0                       # Number of TLB faults due to alignment restrictions
system.cpu.dtb.stage2_mmu.stage2_tlb.domain_faults            0                       # Number of TLB faults due to domain restrictions
system.cpu.dtb.stage2_mmu.stage2_tlb.flush_entries            0                       # Number of entries that have been flushed from TLB
system.cpu.dtb.stage2_mmu.stage2_tlb.flush_tlb            0                       # Number of times complete TLB was flushed
system.cpu.dtb.stage2_mmu.stage2_tlb.flush_tlb_asid            0                       # Number of times TLB was flushed by ASID
system.cpu.dtb.stage2_mmu.stage2_tlb.flush_tlb_mva            0                       # Number of times TLB was flushed by MVA
system.cpu.dtb.stage2_mmu.stage2_tlb.flush_tlb_mva_asid            0                       # Number of times TLB was flushed by MVA & ASID
system.cpu.dtb.stage2_mmu.stage2_tlb.hits            0                       # DTB hits
system.cpu.dtb.stage2_mmu.stage2_tlb.inst_accesses            0                       # ITB inst accesses
system.cpu.dtb.stage2_mmu.stage2_tlb.inst_hits            0                       # ITB inst hits
system.cpu.dtb.stage2_mmu.stage2_tlb.inst_misses            0                       # ITB inst misses
system.cpu.dtb.stage2_mmu.stage2_tlb.misses            0                       # DTB misses
system.cpu.dtb.stage2_mmu.stage2_tlb.perms_faults            0                       # Number of TLB faults due to permissions restrictions
system.cpu.dtb.stage2_mmu.stage2_tlb.prefetch_faults            0                       # Number of TLB faults due to prefetch
system.cpu.dtb.stage2_mmu.stage2_tlb.read_accesses            0                       # DTB read accesses
system.cpu.dtb.stage2_mmu.stage2_tlb.read_hits            0                       # DTB read hits
system.cpu.dtb.stage2_mmu.stage2_tlb.read_misses            0                       # DTB read misses
system.cpu.dtb.stage2_mmu.stage2_tlb.walker.walkRequestOrigin_Requested::Data            0                       # Table walker requests started/completed, data/inst
system.cpu.dtb.stage2_mmu.stage2_tlb.walker.walkRequestOrigin_Requested::Inst            0                       # Table walker requests started/completed, data/inst
system.cpu.dtb.stage2_mmu.stage2_tlb.walker.walkRequestOrigin_Requested::total            0                       # Table walker requests started/completed, data/inst
system.cpu.dtb.stage2_mmu.stage2_tlb.walker.walkRequestOrigin_Completed::Data            0                       # Table walker requests started/completed, data/inst
system.cpu.dtb.stage2_mmu.stage2_tlb.walker.walkRequestOrigin_Completed::Inst            0                       # Table walker requests started/completed, data/inst
system.cpu.dtb.stage2_mmu.stage2_tlb.walker.walkRequestOrigin_Completed::total            0                       # Table walker requests started/completed, data/inst
system.cpu.dtb.stage2_mmu.stage2_tlb.walker.walkRequestOrigin::total            0                       # Table walker requests started/completed, data/inst
system.cpu.dtb.stage2_mmu.stage2_tlb.walker.walks            0                       # Table walker walks requested
system.cpu.dtb.stage2_mmu.stage2_tlb.write_accesses            0                       # DTB write accesses
system.cpu.dtb.stage2_mmu.stage2_tlb.write_hits            0                       # DTB write hits
system.cpu.dtb.stage2_mmu.stage2_tlb.write_misses            0                       # DTB write misses
system.cpu.dtb.walker.walkRequestOrigin_Requested::Data            0                       # Table walker requests started/completed, data/inst
system.cpu.dtb.walker.walkRequestOrigin_Requested::Inst            0                       # Table walker requests started/completed, data/inst
system.cpu.dtb.walker.walkRequestOrigin_Requested::total            0                       # Table walker requests started/completed, data/inst
system.cpu.dtb.walker.walkRequestOrigin_Completed::Data            0                       # Table walker requests started/completed, data/inst
system.cpu.dtb.walker.walkRequestOrigin_Completed::Inst            0                       # Table walker requests started/completed, data/inst
system.cpu.dtb.walker.walkRequestOrigin_Completed::total            0                       # Table walker requests started/completed, data/inst
system.cpu.dtb.walker.walkRequestOrigin::total            0                       # Table walker requests started/completed, data/inst
system.cpu.dtb.walker.walks                         0                       # Table walker walks requested
system.cpu.dtb.write_accesses                       0                       # DTB write accesses
system.cpu.dtb.write_hits                           0                       # DTB write hits
system.cpu.dtb.write_misses                         0                       # DTB write misses
system.cpu.fetch2.amo_instructions                  0                       # Number of memory atomic instructions successfully decoded
system.cpu.fetch2.fp_instructions                   0                       # Number of floating point instructions successfully decoded
system.cpu.fetch2.int_instructions           49964876                       # Number of integer instructions successfully decoded
system.cpu.fetch2.load_instructions          17199378                       # Number of memory load instructions successfully decoded
system.cpu.fetch2.store_instructions         10036335                       # Number of memory store instructions successfully decoded
system.cpu.fetch2.vec_instructions                  0                       # Number of SIMD instructions successfully decoded
system.cpu.idleCycles                         3452280                       # Total number of cycles that the object has spent stopped
system.cpu.ipc                               0.875179                       # IPC: instructions per cycle
system.cpu.itb.accesses                             0                       # DTB accesses
system.cpu.itb.align_faults                         0                       # Number of TLB faults due to alignment restrictions
system.cpu.itb.domain_faults                        0                       # Number of TLB faults due to domain restrictions
system.cpu.itb.flush_entries                        0                       # Number of entries that have been flushed from TLB
system.cpu.itb.flush_tlb                            0                       # Number of times complete TLB was flushed
system.cpu.itb.flush_tlb_asid                       0                       # Number of times TLB was flushed by ASID
system.cpu.itb.flush_tlb_mva                        0                       # Number of times TLB was flushed by MVA
system.cpu.itb.flush_tlb_mva_asid                   0                       # Number of times TLB was flushed by MVA & ASID
system.cpu.itb.hits                                 0                       # DTB hits
system.cpu.itb.inst_accesses                        0                       # ITB inst accesses
system.cpu.itb.inst_hits                            0                       # ITB inst hits
system.cpu.itb.inst_misses                          0                       # ITB inst misses
system.cpu.itb.misses                               0                       # DTB misses
system.cpu.itb.perms_faults                         0                       # Number of TLB faults due to permissions restrictions
system.cpu.itb.prefetch_faults                      0                       # Number of TLB faults due to prefetch
system.cpu.itb.read_accesses                        0                       # DTB read accesses
system.cpu.itb.read_hits                            0                       # DTB read hits
system.cpu.itb.read_misses                          0                       # DTB read misses
system.cpu.itb.stage2_mmu.stage2_tlb.accesses            0                       # DTB accesses
system.cpu.itb.stage2_mmu.stage2_tlb.align_faults            0                       # Number of TLB faults due to alignment restrictions
system.cpu.itb.stage2_mmu.stage2_tlb.domain_faults            0                       # Number of TLB faults due to domain restrictions
system.cpu.itb.stage2_mmu.stage2_tlb.flush_entries            0                       # Number of entries that have been flushed from TLB
system.cpu.itb.stage2_mmu.stage2_tlb.flush_tlb            0                       # Number of times complete TLB was flushed
system.cpu.itb.stage2_mmu.stage2_tlb.flush_tlb_asid            0                       # Number of times TLB was flushed by ASID
system.cpu.itb.stage2_mmu.stage2_tlb.flush_tlb_mva            0                       # Number of times TLB was flushed by MVA
system.cpu.itb.stage2_mmu.stage2_tlb.flush_tlb_mva_asid            0                       # Number of times TLB was flushed by MVA & ASID
system.cpu.itb.stage2_mmu.stage2_tlb.hits            0                       # DTB hits
system.cpu.itb.stage2_mmu.stage2_tlb.inst_accesses            0                       # ITB inst accesses
system.cpu.itb.stage2_mmu.stage2_tlb.inst_hits            0                       # ITB inst hits
system.cpu.itb.stage2_mmu.stage2_tlb.inst_misses            0                       # ITB inst misses
system.cpu.itb.stage2_mmu.stage2_tlb.misses            0                       # DTB misses
system.cpu.itb.stage2_mmu.stage2_tlb.perms_faults            0                       # Number of TLB faults due to permissions restrictions
system.cpu.itb.stage2_mmu.stage2_tlb.prefetch_faults            0                       # Number of TLB faults due to prefetch
system.cpu.itb.stage2_mmu.stage2_tlb.read_accesses            0                       # DTB read accesses
system.cpu.itb.stage2_mmu.stage2_tlb.read_hits            0                       # DTB read hits
system.cpu.itb.stage2_mmu.stage2_tlb.read_misses            0                       # DTB read misses
system.cpu.itb.stage2_mmu.stage2_tlb.walker.walkRequestOrigin_Requested::Data            0                       # Table walker requests started/completed, data/inst
system.cpu.itb.stage2_mmu.stage2_tlb.walker.walkRequestOrigin_Requested::Inst            0                       # Table walker requests started/completed, data/inst
system.cpu.itb.stage2_mmu.stage2_tlb.walker.walkRequestOrigin_Requested::total            0                       # Table walker requests started/completed, data/inst
system.cpu.itb.stage2_mmu.stage2_tlb.walker.walkRequestOrigin_Completed::Data            0                       # Table walker requests started/completed, data/inst
system.cpu.itb.stage2_mmu.stage2_tlb.walker.walkRequestOrigin_Completed::Inst            0                       # Table walker requests started/completed, data/inst
system.cpu.itb.stage2_mmu.stage2_tlb.walker.walkRequestOrigin_Completed::total            0                       # Table walker requests started/completed, data/inst
system.cpu.itb.stage2_mmu.stage2_tlb.walker.walkRequestOrigin::total            0                       # Table walker requests started/completed, data/inst
system.cpu.itb.stage2_mmu.stage2_tlb.walker.walks            0                       # Table walker walks requested
system.cpu.itb.stage2_mmu.stage2_tlb.write_accesses            0                       # DTB write accesses
system.cpu.itb.stage2_mmu.stage2_tlb.write_hits            0                       # DTB write hits
system.cpu.itb.stage2_mmu.stage2_tlb.write_misses            0                       # DTB write misses
system.cpu.itb.walker.walkRequestOrigin_Requested::Data            0                       # Table walker requests started/completed, data/inst
system.cpu.itb.walker.walkRequestOrigin_Requested::Inst            0                       # Table walker requests started/completed, data/inst
system.cpu.itb.walker.walkRequestOrigin_Requested::total            0                       # Table walker requests started/completed, data/inst
system.cpu.itb.walker.walkRequestOrigin_Completed::Data            0                       # Table walker requests started/completed, data/inst
system.cpu.itb.walker.walkRequestOrigin_Completed::Inst            0                       # Table walker requests started/completed, data/inst
system.cpu.itb.walker.walkRequestOrigin_Completed::total            0                       # Table walker requests started/completed, data/inst
system.cpu.itb.walker.walkRequestOrigin::total            0                       # Table walker requests started/completed, data/inst
system.cpu.itb.walker.walks                         0                       # Table walker walks requested
system.cpu.itb.write_accesses                       0                       # DTB write accesses
system.cpu.itb.write_hits                           0                       # DTB write hits
system.cpu.itb.write_misses                         0                       # DTB write misses
system.cpu.numCycles                        114262385                       # number of cpu cycles simulated
system.cpu.numFetchSuspends                         0                       # Number of times Execute suspended instruction fetching
system.cpu.numWorkItemsCompleted                    0                       # number of work items this cpu completed
system.cpu.numWorkItemsStarted                      0                       # number of work items this cpu started
system.cpu.op_class_0::No_OpClass                   0      0.00%      0.00% # Class of committed instruction
system.cpu.op_class_0::IntAlu                72955303     66.67%     66.67% # Class of committed instruction
system.cpu.op_class_0::IntMult                 568365      0.52%     67.19% # Class of committed instruction
system.cpu.op_class_0::IntDiv                       0      0.00%     67.19% # Class of committed instruction
system.cpu.op_class_0::FloatAdd                     0      0.00%     67.19% # Class of committed instruction
system.cpu.op_class_0::FloatCmp                     0      0.00%     67.19% # Class of committed instruction
system.cpu.op_class_0::FloatCvt                     0      0.00%     67.19% # Class of committed instruction
system.cpu.op_class_0::FloatMult                    0      0.00%     67.19% # Class of committed instruction
system.cpu.op_class_0::FloatMultAcc                 0      0.00%     67.19% # Class of committed instruction
system.cpu.op_class_0::FloatDiv                     0      0.00%     67.19% # Class of committed instruction
system.cpu.op_class_0::FloatMisc                    0      0.00%     67.19% # Class of committed instruction
system.cpu.op_class_0::FloatSqrt                    0      0.00%     67.19% # Class of committed instruction
system.cpu.op_class_0::SimdAdd                 241252      0.22%     67.41% # Class of committed instruction
system.cpu.op_class_0::SimdAddAcc                   0      0.00%     67.41% # Class of committed instruction
system.cpu.op_class_0::SimdAlu                 154720      0.14%     67.55% # Class of committed instruction
system.cpu.op_class_0::SimdCmp                 120626      0.11%     67.66% # Class of committed instruction
system.cpu.op_class_0::SimdCvt                      0      0.00%     67.66% # Class of committed instruction
system.cpu.op_class_0::SimdMisc                 44544      0.04%     67.70% # Class of committed instruction
system.cpu.op_class_0::SimdMult                     0      0.00%     67.70% # Class of committed instruction
system.cpu.op_class_0::SimdMultAcc                  0      0.00%     67.70% # Class of committed instruction
system.cpu.op_class_0::SimdShift                    0      0.00%     67.70% # Class of committed instruction
system.cpu.op_class_0::SimdShiftAcc                 0      0.00%     67.70% # Class of committed instruction
system.cpu.op_class_0::SimdDiv                      0      0.00%     67.70% # Class of committed instruction
system.cpu.op_class_0::SimdSqrt                     0      0.00%     67.70% # Class of committed instruction
system.cpu.op_class_0::SimdFloatAdd                 0      0.00%     67.70% # Class of committed instruction
system.cpu.op_class_0::SimdFloatAlu                 0      0.00%     67.70% # Class of committed instruction
system.cpu.op_class_0::SimdFloatCmp                 0      0.00%     67.70% # Class of committed instruction
system.cpu.op_class_0::SimdFloatCvt                 0      0.00%     67.70% # Class of committed instruction
system.cpu.op_class_0::SimdFloatDiv                 0      0.00%     67.70% # Class of committed instruction
system.cpu.op_class_0::SimdFloatMisc           166465      0.15%     67.85% # Class of committed instruction
system.cpu.op_class_0::SimdFloatMult                0      0.00%     67.85% # Class of committed instruction
system.cpu.op_class_0::SimdFloatMultAcc             0      0.00%     67.85% # Class of committed instruction
system.cpu.op_class_0::SimdFloatSqrt                0      0.00%     67.85% # Class of committed instruction
system.cpu.op_class_0::SimdReduceAdd                0      0.00%     67.85% # Class of committed instruction
system.cpu.op_class_0::SimdReduceAlu                0      0.00%     67.85% # Class of committed instruction
system.cpu.op_class_0::SimdReduceCmp                0      0.00%     67.85% # Class of committed instruction
system.cpu.op_class_0::SimdFloatReduceAdd            0      0.00%     67.85% # Class of committed instruction
system.cpu.op_class_0::SimdFloatReduceCmp            0      0.00%     67.85% # Class of committed instruction
system.cpu.op_class_0::SimdAes                      0      0.00%     67.85% # Class of committed instruction
system.cpu.op_class_0::SimdAesMix                   0      0.00%     67.85% # Class of committed instruction
system.cpu.op_class_0::SimdSha1Hash                 0      0.00%     67.85% # Class of committed instruction
system.cpu.op_class_0::SimdSha1Hash2                0      0.00%     67.85% # Class of committed instruction
system.cpu.op_class_0::SimdSha256Hash               0      0.00%     67.85% # Class of committed instruction
system.cpu.op_class_0::SimdSha256Hash2              0      0.00%     67.85% # Class of committed instruction
system.cpu.op_class_0::SimdShaSigma2                0      0.00%     67.85% # Class of committed instruction
system.cpu.op_class_0::SimdShaSigma3                0      0.00%     67.85% # Class of committed instruction
system.cpu.op_class_0::SimdPredAlu                  0      0.00%     67.85% # Class of committed instruction
system.cpu.op_class_0::MemRead               20646465     18.87%     86.72% # Class of committed instruction
system.cpu.op_class_0::MemWrite              14534197     13.28%    100.00% # Class of committed instruction
system.cpu.op_class_0::FloatMemRead                 0      0.00%    100.00% # Class of committed instruction
system.cpu.op_class_0::FloatMemWrite                0      0.00%    100.00% # Class of committed instruction
system.cpu.op_class_0::IprAccess                    0      0.00%    100.00% # Class of committed instruction
system.cpu.op_class_0::InstPrefetch                 0      0.00%    100.00% # Class of committed instruction
system.cpu.op_class_0::total                109431937                       # Class of committed instruction
system.cpu.tickCycles                       110810105                       # Number of cycles that the object actually ticked
system.cpu.workload.numSyscalls                    86                       # Number of system calls
system.membus.snoop_filter.hit_multi_requests            0                       # Number of requests hitting in the snoop filter with multiple (>1) holders of the requested data.
system.membus.snoop_filter.hit_multi_snoops            0                       # Number of snoops hitting in the snoop filter with multiple (>1) holders of the requested data.
system.membus.snoop_filter.hit_single_requests        26187                       # Number of requests hitting in the snoop filter with a single holder of the requested data.
system.membus.snoop_filter.hit_single_snoops            0                       # Number of snoops hitting in the snoop filter with a single holder of the requested data.
system.membus.snoop_filter.tot_requests         69255                       # Total number of requests made to the snoop filter.
system.membus.snoop_filter.tot_snoops               0                       # Total number of snoops made to the snoop filter.
system.tol2bus.snoop_filter.hit_multi_requests         1156                       # Number of requests hitting in the snoop filter with multiple (>1) holders of the requested data.
system.tol2bus.snoop_filter.hit_multi_snoops            0                       # Number of snoops hitting in the snoop filter with multiple (>1) holders of the requested data.
system.tol2bus.snoop_filter.hit_single_requests        61108                       # Number of requests hitting in the snoop filter with a single holder of the requested data.
system.tol2bus.snoop_filter.hit_single_snoops          719                       # Number of snoops hitting in the snoop filter with a single holder of the requested data.
system.tol2bus.snoop_filter.tot_requests       124757                       # Total number of requests made to the snoop filter.
system.tol2bus.snoop_filter.tot_snoops            719                       # Total number of snoops made to the snoop filter.
system.membus.pwrStateResidencyTicks::UNDEFINED 114262385000                       # Cumulative time (in ticks) in various power states
system.membus.trans_dist::ReadResp               4256                       # Transaction distribution
system.membus.trans_dist::WritebackDirty        26064                       # Transaction distribution
system.membus.trans_dist::CleanEvict              123                       # Transaction distribution
system.membus.trans_dist::ReadExReq             38812                       # Transaction distribution
system.membus.trans_dist::ReadExResp            38812                       # Transaction distribution
system.membus.trans_dist::ReadSharedReq          4256                       # Transaction distribution
system.membus.pkt_count_system.l2.mem_side::system.mem_ctrls.port       112323                       # Packet count per connected master and slave (bytes)
system.membus.pkt_count::total                 112323                       # Packet count per connected master and slave (bytes)
system.membus.pkt_size_system.l2.mem_side::system.mem_ctrls.port      4424448                       # Cumulative packet size per connected master and slave (bytes)
system.membus.pkt_size::total                 4424448                       # Cumulative packet size per connected master and slave (bytes)
system.membus.snoops                                0                       # Total snoops (count)
system.membus.snoopTraffic                          0                       # Total snoop traffic (bytes)
system.membus.snoop_fanout::samples             43068                       # Request fanout histogram
system.membus.snoop_fanout::mean                    0                       # Request fanout histogram
system.membus.snoop_fanout::stdev                   0                       # Request fanout histogram
system.membus.snoop_fanout::underflows              0      0.00%      0.00% # Request fanout histogram
system.membus.snoop_fanout::0                   43068    100.00%    100.00% # Request fanout histogram
system.membus.snoop_fanout::1                       0      0.00%    100.00% # Request fanout histogram
system.membus.snoop_fanout::overflows               0      0.00%    100.00% # Request fanout histogram
system.membus.snoop_fanout::min_value               0                       # Request fanout histogram
system.membus.snoop_fanout::max_value               0                       # Request fanout histogram
system.membus.snoop_fanout::total               43068                       # Request fanout histogram
system.membus.respLayer1.occupancy          232020500                       # Layer occupancy (ticks)
system.membus.respLayer1.utilization              0.2                       # Layer utilization (%)
system.membus.reqLayer0.occupancy           173511000                       # Layer occupancy (ticks)
system.membus.reqLayer0.utilization               0.2                       # Layer utilization (%)
system.tol2bus.pwrStateResidencyTicks::UNDEFINED 114262385000                       # Cumulative time (in ticks) in various power states
system.tol2bus.trans_dist::ReadResp             22553                       # Transaction distribution
system.tol2bus.trans_dist::WritebackDirty        79350                       # Transaction distribution
system.tol2bus.trans_dist::WritebackClean           25                       # Transaction distribution
system.tol2bus.trans_dist::CleanEvict            8594                       # Transaction distribution
system.tol2bus.trans_dist::ReadExReq            41100                       # Transaction distribution
system.tol2bus.trans_dist::ReadExResp           41100                       # Transaction distribution
system.tol2bus.trans_dist::ReadCleanReq           526                       # Transaction distribution
system.tol2bus.trans_dist::ReadSharedReq        22027                       # Transaction distribution
system.tol2bus.pkt_count_system.cpu.icache.mem_side::system.l2.cpu_side         1077                       # Packet count per connected master and slave (bytes)
system.tol2bus.pkt_count_system.cpu.dcache.mem_side::system.l2.cpu_side       187333                       # Packet count per connected master and slave (bytes)
system.tol2bus.pkt_count::total                188410                       # Packet count per connected master and slave (bytes)
system.tol2bus.pkt_size_system.cpu.icache.mem_side::system.l2.cpu_side        35264                       # Cumulative packet size per connected master and slave (bytes)
system.tol2bus.pkt_size_system.cpu.dcache.mem_side::system.l2.cpu_side      7450432                       # Cumulative packet size per connected master and slave (bytes)
system.tol2bus.pkt_size::total                7485696                       # Cumulative packet size per connected master and slave (bytes)
system.tol2bus.snoops                           26865                       # Total snoops (count)
system.tol2bus.snoopTraffic                   1668096                       # Total snoop traffic (bytes)
system.tol2bus.snoop_fanout::samples            90518                       # Request fanout histogram
system.tol2bus.snoop_fanout::mean            0.020758                       # Request fanout histogram
system.tol2bus.snoop_fanout::stdev           0.142575                       # Request fanout histogram
system.tol2bus.snoop_fanout::underflows             0      0.00%      0.00% # Request fanout histogram
system.tol2bus.snoop_fanout::0                  88639     97.92%     97.92% # Request fanout histogram
system.tol2bus.snoop_fanout::1                   1879      2.08%    100.00% # Request fanout histogram
system.tol2bus.snoop_fanout::2                      0      0.00%    100.00% # Request fanout histogram
system.tol2bus.snoop_fanout::overflows              0      0.00%    100.00% # Request fanout histogram
system.tol2bus.snoop_fanout::min_value              0                       # Request fanout histogram
system.tol2bus.snoop_fanout::max_value              1                       # Request fanout histogram
system.tol2bus.snoop_fanout::total              90518                       # Request fanout histogram
system.tol2bus.reqLayer0.occupancy          231379000                       # Layer occupancy (ticks)
system.tol2bus.reqLayer0.utilization              0.2                       # Layer utilization (%)
system.tol2bus.respLayer1.occupancy         189385995                       # Layer occupancy (ticks)
system.tol2bus.respLayer1.utilization             0.2                       # Layer utilization (%)
system.tol2bus.respLayer0.occupancy           1578999                       # Layer occupancy (ticks)
system.tol2bus.respLayer0.utilization             0.0                       # Layer utilization (%)
system.voltage_domain.voltage                       1                       # Voltage in Volts
system.clk_domain.clock                          1000                       # Clock period in ticks
system.l2.pwrStateResidencyTicks::UNDEFINED 114262385000                       # Cumulative time (in ticks) in various power states
system.l2.demand_hits::.cpu.inst                   14                       # number of demand (read+write) hits
system.l2.demand_hits::.cpu.data                20565                       # number of demand (read+write) hits
system.l2.demand_hits::total                    20579                       # number of demand (read+write) hits
system.l2.overall_hits::.cpu.inst                  14                       # number of overall hits
system.l2.overall_hits::.cpu.data               20565                       # number of overall hits
system.l2.overall_hits::total                   20579                       # number of overall hits
system.l2.demand_misses::.cpu.inst                512                       # number of demand (read+write) misses
system.l2.demand_misses::.cpu.data              42562                       # number of demand (read+write) misses
system.l2.demand_misses::total                  43074                       # number of demand (read+write) misses
system.l2.overall_misses::.cpu.inst               512                       # number of overall misses
system.l2.overall_misses::.cpu.data             42562                       # number of overall misses
system.l2.overall_misses::total                 43074                       # number of overall misses
system.l2.demand_miss_latency::.cpu.inst     49906000                       # number of demand (read+write) miss cycles
system.l2.demand_miss_latency::.cpu.data   4704761000                       # number of demand (read+write) miss cycles
system.l2.demand_miss_latency::total       4754667000                       # number of demand (read+write) miss cycles
system.l2.overall_miss_latency::.cpu.inst     49906000                       # number of overall miss cycles
system.l2.overall_miss_latency::.cpu.data   4704761000                       # number of overall miss cycles
system.l2.overall_miss_latency::total      4754667000                       # number of overall miss cycles
system.l2.demand_accesses::.cpu.inst              526                       # number of demand (read+write) accesses
system.l2.demand_accesses::.cpu.data            63127                       # number of demand (read+write) accesses
system.l2.demand_accesses::total                63653                       # number of demand (read+write) accesses
system.l2.overall_accesses::.cpu.inst             526                       # number of overall (read+write) accesses
system.l2.overall_accesses::.cpu.data           63127                       # number of overall (read+write) accesses
system.l2.overall_accesses::total               63653                       # number of overall (read+write) accesses
system.l2.demand_miss_rate::.cpu.inst        0.973384                       # miss rate for demand accesses
system.l2.demand_miss_rate::.cpu.data        0.674228                       # miss rate for demand accesses
system.l2.demand_miss_rate::total            0.676700                       # miss rate for demand accesses
system.l2.overall_miss_rate::.cpu.inst       0.973384                       # miss rate for overall accesses
system.l2.overall_miss_rate::.cpu.data       0.674228                       # miss rate for overall accesses
system.l2.overall_miss_rate::total           0.676700                       # miss rate for overall accesses
system.l2.demand_avg_miss_latency::.cpu.inst 97472.656250                       # average overall miss latency
system.l2.demand_avg_miss_latency::.cpu.data 110539.001927                       # average overall miss latency
system.l2.demand_avg_miss_latency::total 110383.688536                       # average overall miss latency
system.l2.overall_avg_miss_latency::.cpu.inst 97472.656250                       # average overall miss latency
system.l2.overall_avg_miss_latency::.cpu.data 110539.001927                       # average overall miss latency
system.l2.overall_avg_miss_latency::total 110383.688536                       # average overall miss latency
system.l2.blocked_cycles::no_mshrs                  0                       # number of cycles access was blocked
system.l2.blocked_cycles::no_targets                0                       # number of cycles access was blocked
system.l2.blocked::no_mshrs                         0                       # number of cycles access was blocked
system.l2.blocked::no_targets                       0                       # number of cycles access was blocked
system.l2.avg_blocked_cycles::no_mshrs            nan                       # average number of cycles each access was blocked
system.l2.avg_blocked_cycles::no_targets          nan                       # average number of cycles each access was blocked
system.l2.writebacks::.writebacks               26064                       # number of writebacks
system.l2.writebacks::total                     26064                       # number of writebacks
system.l2.demand_mshr_hits::.cpu.inst               1                       # number of demand (read+write) MSHR hits
system.l2.demand_mshr_hits::.cpu.data               5                       # number of demand (read+write) MSHR hits
system.l2.demand_mshr_hits::total                   6                       # number of demand (read+write) MSHR hits
system.l2.overall_mshr_hits::.cpu.inst              1                       # number of overall MSHR hits
system.l2.overall_mshr_hits::.cpu.data              5                       # number of overall MSHR hits
system.l2.overall_mshr_hits::total                  6                       # number of overall MSHR hits
system.l2.demand_mshr_misses::.cpu.inst           511                       # number of demand (read+write) MSHR misses
system.l2.demand_mshr_misses::.cpu.data         42557                       # number of demand (read+write) MSHR misses
system.l2.demand_mshr_misses::total             43068                       # number of demand (read+write) MSHR misses
system.l2.overall_mshr_misses::.cpu.inst          511                       # number of overall MSHR misses
system.l2.overall_mshr_misses::.cpu.data        42557                       # number of overall MSHR misses
system.l2.overall_mshr_misses::total            43068                       # number of overall MSHR misses
system.l2.demand_mshr_miss_latency::.cpu.inst     39606000                       # number of demand (read+write) MSHR miss cycles
system.l2.demand_mshr_miss_latency::.cpu.data   3853213000                       # number of demand (read+write) MSHR miss cycles
system.l2.demand_mshr_miss_latency::total   3892819000                       # number of demand (read+write) MSHR miss cycles
system.l2.overall_mshr_miss_latency::.cpu.inst     39606000                       # number of overall MSHR miss cycles
system.l2.overall_mshr_miss_latency::.cpu.data   3853213000                       # number of overall MSHR miss cycles
system.l2.overall_mshr_miss_latency::total   3892819000                       # number of overall MSHR miss cycles
system.l2.demand_mshr_miss_rate::.cpu.inst     0.971483                       # mshr miss rate for demand accesses
system.l2.demand_mshr_miss_rate::.cpu.data     0.674149                       # mshr miss rate for demand accesses
system.l2.demand_mshr_miss_rate::total       0.676606                       # mshr miss rate for demand accesses
system.l2.overall_mshr_miss_rate::.cpu.inst     0.971483                       # mshr miss rate for overall accesses
system.l2.overall_mshr_miss_rate::.cpu.data     0.674149                       # mshr miss rate for overall accesses
system.l2.overall_mshr_miss_rate::total      0.676606                       # mshr miss rate for overall accesses
system.l2.demand_avg_mshr_miss_latency::.cpu.inst 77506.849315                       # average overall mshr miss latency
system.l2.demand_avg_mshr_miss_latency::.cpu.data 90542.401955                       # average overall mshr miss latency
system.l2.demand_avg_mshr_miss_latency::total 90387.735674                       # average overall mshr miss latency
system.l2.overall_avg_mshr_miss_latency::.cpu.inst 77506.849315                       # average overall mshr miss latency
system.l2.overall_avg_mshr_miss_latency::.cpu.data 90542.401955                       # average overall mshr miss latency
system.l2.overall_avg_mshr_miss_latency::total 90387.735674                       # average overall mshr miss latency
system.l2.replacements                          26865                       # number of replacements
system.l2.WritebackDirty_hits::.writebacks        53286                       # number of WritebackDirty hits
system.l2.WritebackDirty_hits::total            53286                       # number of WritebackDirty hits
system.l2.WritebackDirty_accesses::.writebacks        53286                       # number of WritebackDirty accesses(hits+misses)
system.l2.WritebackDirty_accesses::total        53286                       # number of WritebackDirty accesses(hits+misses)
system.l2.WritebackClean_hits::.writebacks           24                       # number of WritebackClean hits
system.l2.WritebackClean_hits::total               24                       # number of WritebackClean hits
system.l2.WritebackClean_accesses::.writebacks           24                       # number of WritebackClean accesses(hits+misses)
system.l2.WritebackClean_accesses::total           24                       # number of WritebackClean accesses(hits+misses)
system.l2.CleanEvict_mshr_misses::.writebacks           41                       # number of CleanEvict MSHR misses
system.l2.CleanEvict_mshr_misses::total            41                       # number of CleanEvict MSHR misses
system.l2.CleanEvict_mshr_miss_rate::.writebacks          inf                       # mshr miss rate for CleanEvict accesses
system.l2.CleanEvict_mshr_miss_rate::total          inf                       # mshr miss rate for CleanEvict accesses
system.l2.ReadExReq_hits::.cpu.data              2288                       # number of ReadExReq hits
system.l2.ReadExReq_hits::total                  2288                       # number of ReadExReq hits
system.l2.ReadExReq_misses::.cpu.data           38812                       # number of ReadExReq misses
system.l2.ReadExReq_misses::total               38812                       # number of ReadExReq misses
system.l2.ReadExReq_miss_latency::.cpu.data   4291315000                       # number of ReadExReq miss cycles
system.l2.ReadExReq_miss_latency::total    4291315000                       # number of ReadExReq miss cycles
system.l2.ReadExReq_accesses::.cpu.data         41100                       # number of ReadExReq accesses(hits+misses)
system.l2.ReadExReq_accesses::total             41100                       # number of ReadExReq accesses(hits+misses)
system.l2.ReadExReq_miss_rate::.cpu.data     0.944331                       # miss rate for ReadExReq accesses
system.l2.ReadExReq_miss_rate::total         0.944331                       # miss rate for ReadExReq accesses
system.l2.ReadExReq_avg_miss_latency::.cpu.data 110566.706173                       # average ReadExReq miss latency
system.l2.ReadExReq_avg_miss_latency::total 110566.706173                       # average ReadExReq miss latency
system.l2.ReadExReq_mshr_misses::.cpu.data        38812                       # number of ReadExReq MSHR misses
system.l2.ReadExReq_mshr_misses::total          38812                       # number of ReadExReq MSHR misses
system.l2.ReadExReq_mshr_miss_latency::.cpu.data   3515075000                       # number of ReadExReq MSHR miss cycles
system.l2.ReadExReq_mshr_miss_latency::total   3515075000                       # number of ReadExReq MSHR miss cycles
system.l2.ReadExReq_mshr_miss_rate::.cpu.data     0.944331                       # mshr miss rate for ReadExReq accesses
system.l2.ReadExReq_mshr_miss_rate::total     0.944331                       # mshr miss rate for ReadExReq accesses
system.l2.ReadExReq_avg_mshr_miss_latency::.cpu.data 90566.706173                       # average ReadExReq mshr miss latency
system.l2.ReadExReq_avg_mshr_miss_latency::total 90566.706173                       # average ReadExReq mshr miss latency
system.l2.ReadCleanReq_hits::.cpu.inst             14                       # number of ReadCleanReq hits
system.l2.ReadCleanReq_hits::total                 14                       # number of ReadCleanReq hits
system.l2.ReadCleanReq_misses::.cpu.inst          512                       # number of ReadCleanReq misses
system.l2.ReadCleanReq_misses::total              512                       # number of ReadCleanReq misses
system.l2.ReadCleanReq_miss_latency::.cpu.inst     49906000                       # number of ReadCleanReq miss cycles
system.l2.ReadCleanReq_miss_latency::total     49906000                       # number of ReadCleanReq miss cycles
system.l2.ReadCleanReq_accesses::.cpu.inst          526                       # number of ReadCleanReq accesses(hits+misses)
system.l2.ReadCleanReq_accesses::total            526                       # number of ReadCleanReq accesses(hits+misses)
system.l2.ReadCleanReq_miss_rate::.cpu.inst     0.973384                       # miss rate for ReadCleanReq accesses
system.l2.ReadCleanReq_miss_rate::total      0.973384                       # miss rate for ReadCleanReq accesses
system.l2.ReadCleanReq_avg_miss_latency::.cpu.inst 97472.656250                       # average ReadCleanReq miss latency
system.l2.ReadCleanReq_avg_miss_latency::total 97472.656250                       # average ReadCleanReq miss latency
system.l2.ReadCleanReq_mshr_hits::.cpu.inst            1                       # number of ReadCleanReq MSHR hits
system.l2.ReadCleanReq_mshr_hits::total             1                       # number of ReadCleanReq MSHR hits
system.l2.ReadCleanReq_mshr_misses::.cpu.inst          511                       # number of ReadCleanReq MSHR misses
system.l2.ReadCleanReq_mshr_misses::total          511                       # number of ReadCleanReq MSHR misses
system.l2.ReadCleanReq_mshr_miss_latency::.cpu.inst     39606000                       # number of ReadCleanReq MSHR miss cycles
system.l2.ReadCleanReq_mshr_miss_latency::total     39606000                       # number of ReadCleanReq MSHR miss cycles
system.l2.ReadCleanReq_mshr_miss_rate::.cpu.inst     0.971483                       # mshr miss rate for ReadCleanReq accesses
system.l2.ReadCleanReq_mshr_miss_rate::total     0.971483                       # mshr miss rate for ReadCleanReq accesses
system.l2.ReadCleanReq_avg_mshr_miss_latency::.cpu.inst 77506.849315                       # average ReadCleanReq mshr miss latency
system.l2.ReadCleanReq_avg_mshr_miss_latency::total 77506.849315                       # average ReadCleanReq mshr miss latency
system.l2.ReadSharedReq_hits::.cpu.data         18277                       # number of ReadSharedReq hits
system.l2.ReadSharedReq_hits::total             18277                       # number of ReadSharedReq hits
system.l2.ReadSharedReq_misses::.cpu.data         3750                       # number of ReadSharedReq misses
system.l2.ReadSharedReq_misses::total            3750                       # number of ReadSharedReq misses
system.l2.ReadSharedReq_miss_latency::.cpu.data    413446000                       # number of ReadSharedReq miss cycles
system.l2.ReadSharedReq_miss_latency::total    413446000                       # number of ReadSharedReq miss cycles
system.l2.ReadSharedReq_accesses::.cpu.data        22027                       # number of ReadSharedReq accesses(hits+misses)
system.l2.ReadSharedReq_accesses::total         22027                       # number of ReadSharedReq accesses(hits+misses)
system.l2.ReadSharedReq_miss_rate::.cpu.data     0.170246                       # miss rate for ReadSharedReq accesses
system.l2.ReadSharedReq_miss_rate::total     0.170246                       # miss rate for ReadSharedReq accesses
system.l2.ReadSharedReq_avg_miss_latency::.cpu.data 110252.266667                       # average ReadSharedReq miss latency
system.l2.ReadSharedReq_avg_miss_latency::total 110252.266667                       # average ReadSharedReq miss latency
system.l2.ReadSharedReq_mshr_hits::.cpu.data            5                       # number of ReadSharedReq MSHR hits
system.l2.ReadSharedReq_mshr_hits::total            5                       # number of ReadSharedReq MSHR hits
system.l2.ReadSharedReq_mshr_misses::.cpu.data         3745                       # number of ReadSharedReq MSHR misses
system.l2.ReadSharedReq_mshr_misses::total         3745                       # number of ReadSharedReq MSHR misses
system.l2.ReadSharedReq_mshr_miss_latency::.cpu.data    338138000                       # number of ReadSharedReq MSHR miss cycles
system.l2.ReadSharedReq_mshr_miss_latency::total    338138000                       # number of ReadSharedReq MSHR miss cycles
system.l2.ReadSharedReq_mshr_miss_rate::.cpu.data     0.170019                       # mshr miss rate for ReadSharedReq accesses
system.l2.ReadSharedReq_mshr_miss_rate::total     0.170019                       # mshr miss rate for ReadSharedReq accesses
system.l2.ReadSharedReq_avg_mshr_miss_latency::.cpu.data 90290.520694                       # average ReadSharedReq mshr miss latency
system.l2.ReadSharedReq_avg_mshr_miss_latency::total 90290.520694                       # average ReadSharedReq mshr miss latency
system.l2.tags.pwrStateResidencyTicks::UNDEFINED 114262385000                       # Cumulative time (in ticks) in various power states
system.l2.tags.tagsinuse                 15541.254937                       # Cycle average of tags in use
system.l2.tags.total_refs                      123554                       # Total number of references to valid blocks.
system.l2.tags.sampled_refs                     43249                       # Sample count of references to valid blocks.
system.l2.tags.avg_refs                      2.856806                       # Average number of references to valid blocks.
system.l2.tags.warmup_cycle                     87000                       # Cycle when the warmup percentage was hit.
system.l2.tags.occ_blocks::.writebacks      53.905719                       # Average occupied blocks per requestor
system.l2.tags.occ_blocks::.cpu.inst        29.623806                       # Average occupied blocks per requestor
system.l2.tags.occ_blocks::.cpu.data     15457.725412                       # Average occupied blocks per requestor
system.l2.tags.occ_percent::.writebacks      0.003290                       # Average percentage of cache occupancy
system.l2.tags.occ_percent::.cpu.inst        0.001808                       # Average percentage of cache occupancy
system.l2.tags.occ_percent::.cpu.data        0.943465                       # Average percentage of cache occupancy
system.l2.tags.occ_percent::total            0.948563                       # Average percentage of cache occupancy
system.l2.tags.occ_task_id_blocks::1024         16384                       # Occupied blocks per task id
system.l2.tags.age_task_id_blocks_1024::0            2                       # Occupied blocks per task id
system.l2.tags.age_task_id_blocks_1024::1           17                       # Occupied blocks per task id
system.l2.tags.age_task_id_blocks_1024::2          228                       # Occupied blocks per task id
system.l2.tags.age_task_id_blocks_1024::3         2475                       # Occupied blocks per task id
system.l2.tags.age_task_id_blocks_1024::4        13662                       # Occupied blocks per task id
system.l2.tags.occ_task_id_percent::1024            1                       # Percentage of cache occupancy per task id
system.l2.tags.tag_accesses                    290451                       # Number of tag accesses
system.l2.tags.data_accesses                   290451                       # Number of data accesses
system.cpu_voltage_domain.voltage                   1                       # Voltage in Volts
system.mem_ctrls.pwrStateResidencyTicks::UNDEFINED 114262385000                       # Cumulative time (in ticks) in various power states
system.mem_ctrls.bytes_read::.cpu.inst          32704                       # Number of bytes read from this memory
system.mem_ctrls.bytes_read::.cpu.data        2723648                       # Number of bytes read from this memory
system.mem_ctrls.bytes_read::total            2756352                       # Number of bytes read from this memory
system.mem_ctrls.bytes_inst_read::.cpu.inst        32704                       # Number of instructions bytes read from this memory
system.mem_ctrls.bytes_inst_read::total         32704                       # Number of instructions bytes read from this memory
system.mem_ctrls.bytes_written::.writebacks      1668096                       # Number of bytes written to this memory
system.mem_ctrls.bytes_written::total         1668096                       # Number of bytes written to this memory
system.mem_ctrls.num_reads::.cpu.inst             511                       # Number of read requests responded to by this memory
system.mem_ctrls.num_reads::.cpu.data           42557                       # Number of read requests responded to by this memory
system.mem_ctrls.num_reads::total               43068                       # Number of read requests responded to by this memory
system.mem_ctrls.num_writes::.writebacks        26064                       # Number of write requests responded to by this memory
system.mem_ctrls.num_writes::total              26064                       # Number of write requests responded to by this memory
system.mem_ctrls.bw_read::.cpu.inst            286218                       # Total read bandwidth from this memory (bytes/s)
system.mem_ctrls.bw_read::.cpu.data          23836786                       # Total read bandwidth from this memory (bytes/s)
system.mem_ctrls.bw_read::total              24123004                       # Total read bandwidth from this memory (bytes/s)
system.mem_ctrls.bw_inst_read::.cpu.inst       286218                       # Instruction read bandwidth from this memory (bytes/s)
system.mem_ctrls.bw_inst_read::total           286218                       # Instruction read bandwidth from this memory (bytes/s)
system.mem_ctrls.bw_write::.writebacks       14598820                       # Write bandwidth from this memory (bytes/s)
system.mem_ctrls.bw_write::total             14598820                       # Write bandwidth from this memory (bytes/s)
system.mem_ctrls.bw_total::.writebacks       14598820                       # Total bandwidth to/from this memory (bytes/s)
system.mem_ctrls.bw_total::.cpu.inst           286218                       # Total bandwidth to/from this memory (bytes/s)
system.mem_ctrls.bw_total::.cpu.data         23836786                       # Total bandwidth to/from this memory (bytes/s)
system.mem_ctrls.bw_total::total             38721824                       # Total bandwidth to/from this memory (bytes/s)
system.mem_ctrls.avgPriority_.writebacks::samples     26064.00                       # Average QoS priority value for accepted requests
system.mem_ctrls.avgPriority_.cpu.inst::samples       511.00                       # Average QoS priority value for accepted requests
system.mem_ctrls.avgPriority_.cpu.data::samples     42549.00                       # Average QoS priority value for accepted requests
system.mem_ctrls.priorityMinLatency      0.000000018750                       # per QoS priority minimum request to response latency (s)
system.mem_ctrls.priorityMaxLatency      0.008395640500                       # per QoS priority maximum request to response latency (s)
system.mem_ctrls.numReadWriteTurnArounds         1445                       # Number of turnarounds from READ to WRITE
system.mem_ctrls.numWriteReadTurnArounds         1445                       # Number of turnarounds from WRITE to READ
system.mem_ctrls.numStayReadState              141342                       # Number of times bus staying in READ state
system.mem_ctrls.numStayWriteState              24615                       # Number of times bus staying in WRITE state
system.mem_ctrls.readReqs                       43068                       # Number of read requests accepted
system.mem_ctrls.writeReqs                      26064                       # Number of write requests accepted
system.mem_ctrls.readBursts                     43068                       # Number of DRAM read bursts, including those serviced by the write queue
system.mem_ctrls.writeBursts                    26064                       # Number of DRAM write bursts, including those merged in the write queue
system.mem_ctrls.servicedByWrQ                      8                       # Number of DRAM read bursts serviced by the write queue
system.mem_ctrls.mergedWrBursts                     0                       # Number of DRAM write bursts merged with an existing one
system.mem_ctrls.neitherReadNorWriteReqs            0                       # Number of requests that are neither read nor write
system.mem_ctrls.perBankRdBursts::0              2688                       # Per bank write bursts
system.mem_ctrls.perBankRdBursts::1              2550                       # Per bank write bursts
system.mem_ctrls.perBankRdBursts::2              2553                       # Per bank write bursts
system.mem_ctrls.perBankRdBursts::3              2835                       # Per bank write bursts
system.mem_ctrls.perBankRdBursts::4              2929                       # Per bank write bursts
system.mem_ctrls.perBankRdBursts::5              2644                       # Per bank write bursts
system.mem_ctrls.perBankRdBursts::6              2644                       # Per bank write bursts
system.mem_ctrls.perBankRdBursts::7              2668                       # Per bank write bursts
system.mem_ctrls.perBankRdBursts::8              2672                       # Per bank write bursts
system.mem_ctrls.perBankRdBursts::9              2678                       # Per bank write bursts
system.mem_ctrls.perBankRdBursts::10             2659                       # Per bank write bursts
system.mem_ctrls.perBankRdBursts::11             2704                       # Per bank write bursts
system.mem_ctrls.perBankRdBursts::12             2723                       # Per bank write bursts
system.mem_ctrls.perBankRdBursts::13             2676                       # Per bank write bursts
system.mem_ctrls.perBankRdBursts::14             2754                       # Per bank write bursts
system.mem_ctrls.perBankRdBursts::15             2683                       # Per bank write bursts
system.mem_ctrls.perBankWrBursts::0              1590                       # Per bank write bursts
system.mem_ctrls.perBankWrBursts::1              1498                       # Per bank write bursts
system.mem_ctrls.perBankWrBursts::2              1512                       # Per bank write bursts
system.mem_ctrls.perBankWrBursts::3              1720                       # Per bank write bursts
system.mem_ctrls.perBankWrBursts::4              1857                       # Per bank write bursts
system.mem_ctrls.perBankWrBursts::5              1621                       # Per bank write bursts
system.mem_ctrls.perBankWrBursts::6              1620                       # Per bank write bursts
system.mem_ctrls.perBankWrBursts::7              1617                       # Per bank write bursts
system.mem_ctrls.perBankWrBursts::8              1625                       # Per bank write bursts
system.mem_ctrls.perBankWrBursts::9              1598                       # Per bank write bursts
system.mem_ctrls.perBankWrBursts::10             1599                       # Per bank write bursts
system.mem_ctrls.perBankWrBursts::11             1618                       # Per bank write bursts
system.mem_ctrls.perBankWrBursts::12             1647                       # Per bank write bursts
system.mem_ctrls.perBankWrBursts::13             1631                       # Per bank write bursts
system.mem_ctrls.perBankWrBursts::14             1657                       # Per bank write bursts
system.mem_ctrls.perBankWrBursts::15             1626                       # Per bank write bursts
system.mem_ctrls.avgRdQLen                       1.03                       # Average read queue length when enqueuing
system.mem_ctrls.avgWrQLen                      22.83                       # Average write queue length when enqueuing
system.mem_ctrls.totQLat                    872361500                       # Total ticks spent queuing
system.mem_ctrls.totBusLat                  215300000                       # Total ticks spent in databus transfers
system.mem_ctrls.totMemAccLat              1679736500                       # Total ticks spent from burst creation until serviced by the DRAM
system.mem_ctrls.avgQLat                     20259.21                       # Average queueing delay per DRAM burst
system.mem_ctrls.avgBusLat                    5000.00                       # Average bus latency per DRAM burst
system.mem_ctrls.avgMemAccLat                39009.21                       # Average memory access latency per DRAM burst
system.mem_ctrls.numRdRetry                         0                       # Number of times read queue was full causing retry
system.mem_ctrls.numWrRetry                         0                       # Number of times write queue was full causing retry
system.mem_ctrls.readRowHits                    19484                       # Number of row buffer hits during reads
system.mem_ctrls.writeRowHits                   20681                       # Number of row buffer hits during writes
system.mem_ctrls.readRowHitRate                 45.25                       # Row buffer hit rate for reads
system.mem_ctrls.writeRowHitRate                79.35                       # Row buffer hit rate for writes
system.mem_ctrls.readPktSize::0                     0                       # Read request sizes (log2)
system.mem_ctrls.readPktSize::1                     0                       # Read request sizes (log2)
system.mem_ctrls.readPktSize::2                     0                       # Read request sizes (log2)
system.mem_ctrls.readPktSize::3                     0                       # Read request sizes (log2)
system.mem_ctrls.readPktSize::4                     0                       # Read request sizes (log2)
system.mem_ctrls.readPktSize::5                     0                       # Read request sizes (log2)
system.mem_ctrls.readPktSize::6                 43068                       # Read request sizes (log2)
system.mem_ctrls.writePktSize::0                    0                       # Write request sizes (log2)
system.mem_ctrls.writePktSize::1                    0                       # Write request sizes (log2)
system.mem_ctrls.writePktSize::2                    0                       # Write request sizes (log2)
system.mem_ctrls.writePktSize::3                    0                       # Write request sizes (log2)
system.mem_ctrls.writePktSize::4                    0                       # Write request sizes (log2)
system.mem_ctrls.writePktSize::5                    0                       # Write request sizes (log2)
system.mem_ctrls.writePktSize::6                26064                       # Write request sizes (log2)
system.mem_ctrls.rdQLenPdf::0                   42109                       # What read queue length does an incoming req see
system.mem_ctrls.rdQLenPdf::1                     945                       # What read queue length does an incoming req see
system.mem_ctrls.rdQLenPdf::2                       6                       # What read queue length does an incoming req see
system.mem_ctrls.rdQLenPdf::3                       0                       # What read queue length does an incoming req see
system.mem_ctrls.rdQLenPdf::4                       0                       # What read queue length does an incoming req see
system.mem_ctrls.rdQLenPdf::5                       0                       # What read queue length does an incoming req see
system.mem_ctrls.rdQLenPdf::6                       0                       # What read queue length does an incoming req see
system.mem_ctrls.rdQLenPdf::7                       0                       # What read queue length does an incoming req see
system.mem_ctrls.rdQLenPdf::8                       0                       # What read queue length does an incoming req see
system.mem_ctrls.rdQLenPdf::9                       0                       # What read queue length does an incoming req see
system.mem_ctrls.rdQLenPdf::10                      0                       # What read queue length does an incoming req see
system.mem_ctrls.rdQLenPdf::11                      0                       # What read queue length does an incoming req see
system.mem_ctrls.rdQLenPdf::12                      0                       # What read queue length does an incoming req see
system.mem_ctrls.rdQLenPdf::13                      0                       # What read queue length does an incoming req see
system.mem_ctrls.rdQLenPdf::14                      0                       # What read queue length does an incoming req see
system.mem_ctrls.rdQLenPdf::15                      0                       # What read queue length does an incoming req see
system.mem_ctrls.rdQLenPdf::16                      0                       # What read queue length does an incoming req see
system.mem_ctrls.rdQLenPdf::17                      0                       # What read queue length does an incoming req see
system.mem_ctrls.rdQLenPdf::18                      0                       # What read queue length does an incoming req see
system.mem_ctrls.rdQLenPdf::19                      0                       # What read queue length does an incoming req see
system.mem_ctrls.rdQLenPdf::20                      0                       # What read queue length does an incoming req see
system.mem_ctrls.rdQLenPdf::21                      0                       # What read queue length does an incoming req see
system.mem_ctrls.rdQLenPdf::22                      0                       # What read queue length does an incoming req see
system.mem_ctrls.rdQLenPdf::23                      0                       # What read queue length does an incoming req see
system.mem_ctrls.rdQLenPdf::24                      0                       # What read queue length does an incoming req see
system.mem_ctrls.rdQLenPdf::25                      0                       # What read queue length does an incoming req see
system.mem_ctrls.rdQLenPdf::26                      0                       # What read queue length does an incoming req see
system.mem_ctrls.rdQLenPdf::27                      0                       # What read queue length does an incoming req see
system.mem_ctrls.rdQLenPdf::28                      0                       # What read queue length does an incoming req see
system.mem_ctrls.rdQLenPdf::29                      0                       # What read queue length does an incoming req see
system.mem_ctrls.rdQLenPdf::30                      0                       # What read queue length does an incoming req see
system.mem_ctrls.rdQLenPdf::31                      0                       # What read queue length does an incoming req see
system.mem_ctrls.wrQLenPdf::0                       1                       # What write queue length does an incoming req see
system.mem_ctrls.wrQLenPdf::1                       1                       # What write queue length does an incoming req see
system.mem_ctrls.wrQLenPdf::2                       1                       # What write queue length does an incoming req see
system.mem_ctrls.wrQLenPdf::3                       1                       # What write queue length does an incoming req see
system.mem_ctrls.wrQLenPdf::4                       1                       # What write queue length does an incoming req see
system.mem_ctrls.wrQLenPdf::5                       1                       # What write queue length does an incoming req see
system.mem_ctrls.wrQLenPdf::6                       1                       # What write queue length does an incoming req see
system.mem_ctrls.wrQLenPdf::7                       1                       # What write queue length does an incoming req see
system.mem_ctrls.wrQLenPdf::8                       1                       # What write queue length does an incoming req see
system.mem_ctrls.wrQLenPdf::9                       1                       # What write queue length does an incoming req see
system.mem_ctrls.wrQLenPdf::10                      1                       # What write queue length does an incoming req see
system.mem_ctrls.wrQLenPdf::11                      1                       # What write queue length does an incoming req see
system.mem_ctrls.wrQLenPdf::12                      1                       # What write queue length does an incoming req see
system.mem_ctrls.wrQLenPdf::13                      1                       # What write queue length does an incoming req see
system.mem_ctrls.wrQLenPdf::14                      1                       # What write queue length does an incoming req see
system.mem_ctrls.wrQLenPdf::15                   1413                       # What write queue length does an incoming req see
system.mem_ctrls.wrQLenPdf::16                   1413                       # What write queue length does an incoming req see
system.mem_ctrls.wrQLenPdf::17                   1447                       # What write queue length does an incoming req see
system.mem_ctrls.wrQLenPdf::18                   1448                       # What write queue length does an incoming req see
system.mem_ctrls.wrQLenPdf::19                   1449                       # What write queue length does an incoming req see
system.mem_ctrls.wrQLenPdf::20                   1454                       # What write queue length does an incoming req see
system.mem_ctrls.wrQLenPdf::21                   1448                       # What write queue length does an incoming req see
system.mem_ctrls.wrQLenPdf::22                   1454                       # What write queue length does an incoming req see
system.mem_ctrls.wrQLenPdf::23                   1464                       # What write queue length does an incoming req see
system.mem_ctrls.wrQLenPdf::24                   1450                       # What write queue length does an incoming req see
system.mem_ctrls.wrQLenPdf::25                   1459                       # What write queue length does an incoming req see
system.mem_ctrls.wrQLenPdf::26                   1451                       # What write queue length does an incoming req see
system.mem_ctrls.wrQLenPdf::27                   1458                       # What write queue length does an incoming req see
system.mem_ctrls.wrQLenPdf::28                   1457                       # What write queue length does an incoming req see
system.mem_ctrls.wrQLenPdf::29                   1448                       # What write queue length does an incoming req see
system.mem_ctrls.wrQLenPdf::30                   1446                       # What write queue length does an incoming req see
system.mem_ctrls.wrQLenPdf::31                   1445                       # What write queue length does an incoming req see
system.mem_ctrls.wrQLenPdf::32                   1445                       # What write queue length does an incoming req see
system.mem_ctrls.wrQLenPdf::33                      0                       # What write queue length does an incoming req see
system.mem_ctrls.wrQLenPdf::34                      0                       # What write queue length does an incoming req see
system.mem_ctrls.wrQLenPdf::35                      0                       # What write queue length does an incoming req see
system.mem_ctrls.wrQLenPdf::36                      0                       # What write queue length does an incoming req see
system.mem_ctrls.wrQLenPdf::37                      0                       # What write queue length does an incoming req see
system.mem_ctrls.wrQLenPdf::38                      0                       # What write queue length does an incoming req see
system.mem_ctrls.wrQLenPdf::39                      0                       # What write queue length does an incoming req see
system.mem_ctrls.wrQLenPdf::40                      0                       # What write queue length does an incoming req see
system.mem_ctrls.wrQLenPdf::41                      0                       # What write queue length does an incoming req see
system.mem_ctrls.wrQLenPdf::42                      0                       # What write queue length does an incoming req see
system.mem_ctrls.wrQLenPdf::43                      0                       # What write queue length does an incoming req see
system.mem_ctrls.wrQLenPdf::44                      0                       # What write queue length does an incoming req see
system.mem_ctrls.wrQLenPdf::45                      0                       # What write queue length does an incoming req see
system.mem_ctrls.wrQLenPdf::46                      0                       # What write queue length does an incoming req see
system.mem_ctrls.wrQLenPdf::47                      0                       # What write queue length does an incoming req see
system.mem_ctrls.wrQLenPdf::48                      0                       # What write queue length does an incoming req see
system.mem_ctrls.wrQLenPdf::49                      0                       # What write queue length does an incoming req see
system.mem_ctrls.wrQLenPdf::50                      0                       # What write queue length does an incoming req see
system.mem_ctrls.wrQLenPdf::51                      0                       # What write queue length does an incoming req see
system.mem_ctrls.wrQLenPdf::52                      0                       # What write queue length does an incoming req see
system.mem_ctrls.wrQLenPdf::53                      0                       # What write queue length does an incoming req see
system.mem_ctrls.wrQLenPdf::54                      0                       # What write queue length does an incoming req see
system.mem_ctrls.wrQLenPdf::55                      0                       # What write queue length does an incoming req see
system.mem_ctrls.wrQLenPdf::56                      0                       # What write queue length does an incoming req see
system.mem_ctrls.wrQLenPdf::57                      0                       # What write queue length does an incoming req see
system.mem_ctrls.wrQLenPdf::58                      0                       # What write queue length does an incoming req see
system.mem_ctrls.wrQLenPdf::59                      0                       # What write queue length does an incoming req see
system.mem_ctrls.wrQLenPdf::60                      0                       # What write queue length does an incoming req see
system.mem_ctrls.wrQLenPdf::61                      0                       # What write queue length does an incoming req see
system.mem_ctrls.wrQLenPdf::62                      0                       # What write queue length does an incoming req see
system.mem_ctrls.wrQLenPdf::63                      0                       # What write queue length does an incoming req see
system.mem_ctrls.bytesPerActivate::samples        28930                       # Bytes accessed per row activation
system.mem_ctrls.bytesPerActivate::mean    152.852264                       # Bytes accessed per row activation
system.mem_ctrls.bytesPerActivate::gmean   110.858362                       # Bytes accessed per row activation
system.mem_ctrls.bytesPerActivate::stdev   181.283381                       # Bytes accessed per row activation
system.mem_ctrls.bytesPerActivate::0-127        14281     49.36%     49.36% # Bytes accessed per row activation
system.mem_ctrls.bytesPerActivate::128-255        10863     37.55%     86.91% # Bytes accessed per row activation
system.mem_ctrls.bytesPerActivate::256-383         1825      6.31%     93.22% # Bytes accessed per row activation
system.mem_ctrls.bytesPerActivate::384-511          548      1.89%     95.12% # Bytes accessed per row activation
system.mem_ctrls.bytesPerActivate::512-639          197      0.68%     95.80% # Bytes accessed per row activation
system.mem_ctrls.bytesPerActivate::640-767          172      0.59%     96.39% # Bytes accessed per row activation
system.mem_ctrls.bytesPerActivate::768-895          210      0.73%     97.12% # Bytes accessed per row activation
system.mem_ctrls.bytesPerActivate::896-1023          221      0.76%     97.88% # Bytes accessed per row activation
system.mem_ctrls.bytesPerActivate::1024-1151          613      2.12%    100.00% # Bytes accessed per row activation
system.mem_ctrls.bytesPerActivate::total        28930                       # Bytes accessed per row activation
system.mem_ctrls.rdPerTurnAround::samples         1445                       # Reads before turning the bus around for writes
system.mem_ctrls.rdPerTurnAround::mean      29.790311                       # Reads before turning the bus around for writes
system.mem_ctrls.rdPerTurnAround::gmean     20.002675                       # Reads before turning the bus around for writes
system.mem_ctrls.rdPerTurnAround::stdev    324.509294                       # Reads before turning the bus around for writes
system.mem_ctrls.rdPerTurnAround::0-511          1444     99.93%     99.93% # Reads before turning the bus around for writes
system.mem_ctrls.rdPerTurnAround::12288-12799            1      0.07%    100.00% # Reads before turning the bus around for writes
[...]
system.cpu.icache.tags.occ_percent::total     0.244162                       # Average percentage of cache occupancy
system.cpu.icache.tags.occ_task_id_blocks::1024          501                       # Occupied blocks per task id
system.cpu.icache.tags.age_task_id_blocks_1024::4          501                       # Occupied blocks per task id
system.cpu.icache.tags.occ_task_id_percent::1024     0.244629                       # Percentage of cache occupancy per task id
system.cpu.icache.tags.tag_accesses          28673719                       # Number of tag accesses
system.cpu.icache.tags.data_accesses         28673719                       # Number of data accesses
system.cpu.dtb.walker.pwrStateResidencyTicks::UNDEFINED 114262385000                       # Cumulative time (in ticks) in various power states
system.cpu.dtb.stage2_mmu.stage2_tlb.walker.pwrStateResidencyTicks::UNDEFINED 114262385000                       # Cumulative time (in ticks) in various power states
system.cpu.dcache.pwrStateResidencyTicks::UNDEFINED 114262385000                       # Cumulative time (in ticks) in various power states
system.cpu.dcache.demand_hits::.cpu.data     35651694                       # number of demand (read+write) hits
system.cpu.dcache.demand_hits::total         35651694                       # number of demand (read+write) hits
system.cpu.dcache.overall_hits::.cpu.data     35655009                       # number of overall hits
system.cpu.dcache.overall_hits::total        35655009                       # number of overall hits
system.cpu.dcache.demand_misses::.cpu.data        85693                       # number of demand (read+write) misses
system.cpu.dcache.demand_misses::total          85693                       # number of demand (read+write) misses
system.cpu.dcache.overall_misses::.cpu.data        85739                       # number of overall misses
system.cpu.dcache.overall_misses::total         85739                       # number of overall misses
system.cpu.dcache.demand_miss_latency::.cpu.data   6867457000                       # number of demand (read+write) miss cycles
system.cpu.dcache.demand_miss_latency::total   6867457000                       # number of demand (read+write) miss cycles
system.cpu.dcache.overall_miss_latency::.cpu.data   6867457000                       # number of overall miss cycles
system.cpu.dcache.overall_miss_latency::total   6867457000                       # number of overall miss cycles
system.cpu.dcache.demand_accesses::.cpu.data     35737387                       # number of demand (read+write) accesses
system.cpu.dcache.demand_accesses::total     35737387                       # number of demand (read+write) accesses
system.cpu.dcache.overall_accesses::.cpu.data     35740748                       # number of overall (read+write) accesses
system.cpu.dcache.overall_accesses::total     35740748                       # number of overall (read+write) accesses
system.cpu.dcache.demand_miss_rate::.cpu.data     0.002398                       # miss rate for demand accesses
system.cpu.dcache.demand_miss_rate::total     0.002398                       # miss rate for demand accesses
system.cpu.dcache.overall_miss_rate::.cpu.data     0.002399                       # miss rate for overall accesses
system.cpu.dcache.overall_miss_rate::total     0.002399                       # miss rate for overall accesses
system.cpu.dcache.demand_avg_miss_latency::.cpu.data 80140.233158                       # average overall miss latency
system.cpu.dcache.demand_avg_miss_latency::total 80140.233158                       # average overall miss latency
system.cpu.dcache.overall_avg_miss_latency::.cpu.data 80097.236963                       # average overall miss latency
system.cpu.dcache.overall_avg_miss_latency::total 80097.236963                       # average overall miss latency
system.cpu.dcache.blocked_cycles::no_mshrs            0                       # number of cycles access was blocked
system.cpu.dcache.blocked_cycles::no_targets            0                       # number of cycles access was blocked
system.cpu.dcache.blocked::no_mshrs                 0                       # number of cycles access was blocked
system.cpu.dcache.blocked::no_targets               0                       # number of cycles access was blocked
system.cpu.dcache.avg_blocked_cycles::no_mshrs          nan                       # average number of cycles each access was blocked
system.cpu.dcache.avg_blocked_cycles::no_targets          nan                       # average number of cycles each access was blocked
system.cpu.dcache.writebacks::.writebacks        53286                       # number of writebacks
system.cpu.dcache.writebacks::total             53286                       # number of writebacks
system.cpu.dcache.demand_mshr_hits::.cpu.data        22608                       # number of demand (read+write) MSHR hits
system.cpu.dcache.demand_mshr_hits::total        22608                       # number of demand (read+write) MSHR hits
system.cpu.dcache.overall_mshr_hits::.cpu.data        22608                       # number of overall MSHR hits
system.cpu.dcache.overall_mshr_hits::total        22608                       # number of overall MSHR hits
system.cpu.dcache.demand_mshr_misses::.cpu.data        63085                       # number of demand (read+write) MSHR misses
system.cpu.dcache.demand_mshr_misses::total        63085                       # number of demand (read+write) MSHR misses
system.cpu.dcache.overall_mshr_misses::.cpu.data        63126                       # number of overall MSHR misses
system.cpu.dcache.overall_mshr_misses::total        63126                       # number of overall MSHR misses
system.cpu.dcache.demand_mshr_miss_latency::.cpu.data   5349664000                       # number of demand (read+write) MSHR miss cycles
system.cpu.dcache.demand_mshr_miss_latency::total   5349664000                       # number of demand (read+write) MSHR miss cycles
system.cpu.dcache.overall_mshr_miss_latency::.cpu.data   5352232000                       # number of overall MSHR miss cycles
system.cpu.dcache.overall_mshr_miss_latency::total   5352232000                       # number of overall MSHR miss cycles
system.cpu.dcache.demand_mshr_miss_rate::.cpu.data     0.001765                       # mshr miss rate for demand accesses
system.cpu.dcache.demand_mshr_miss_rate::total     0.001765                       # mshr miss rate for demand accesses
system.cpu.dcache.overall_mshr_miss_rate::.cpu.data     0.001766                       # mshr miss rate for overall accesses
system.cpu.dcache.overall_mshr_miss_rate::total     0.001766                       # mshr miss rate for overall accesses
system.cpu.dcache.demand_avg_mshr_miss_latency::.cpu.data 84800.887691                       # average overall mshr miss latency
system.cpu.dcache.demand_avg_mshr_miss_latency::total 84800.887691                       # average overall mshr miss latency
system.cpu.dcache.overall_avg_mshr_miss_latency::.cpu.data 84786.490511                       # average overall mshr miss latency
system.cpu.dcache.overall_avg_mshr_miss_latency::total 84786.490511                       # average overall mshr miss latency
system.cpu.dcache.replacements                  61079                       # number of replacements
system.cpu.dcache.ReadReq_hits::.cpu.data     21456157                       # number of ReadReq hits
system.cpu.dcache.ReadReq_hits::total        21456157                       # number of ReadReq hits
system.cpu.dcache.ReadReq_misses::.cpu.data        26479                       # number of ReadReq misses
system.cpu.dcache.ReadReq_misses::total         26479                       # number of ReadReq misses
system.cpu.dcache.ReadReq_miss_latency::.cpu.data   1059452000                       # number of ReadReq miss cycles
system.cpu.dcache.ReadReq_miss_latency::total   1059452000                       # number of ReadReq miss cycles
system.cpu.dcache.ReadReq_accesses::.cpu.data     21482636                       # number of ReadReq accesses(hits+misses)
system.cpu.dcache.ReadReq_accesses::total     21482636                       # number of ReadReq accesses(hits+misses)
system.cpu.dcache.ReadReq_miss_rate::.cpu.data     0.001233                       # miss rate for ReadReq accesses
system.cpu.dcache.ReadReq_miss_rate::total     0.001233                       # miss rate for ReadReq accesses
system.cpu.dcache.ReadReq_avg_miss_latency::.cpu.data 40011.027607                       # average ReadReq miss latency
system.cpu.dcache.ReadReq_avg_miss_latency::total 40011.027607                       # average ReadReq miss latency
system.cpu.dcache.ReadReq_mshr_hits::.cpu.data         4494                       # number of ReadReq MSHR hits
system.cpu.dcache.ReadReq_mshr_hits::total         4494                       # number of ReadReq MSHR hits
system.cpu.dcache.ReadReq_mshr_misses::.cpu.data        21985                       # number of ReadReq MSHR misses
system.cpu.dcache.ReadReq_mshr_misses::total        21985                       # number of ReadReq MSHR misses
system.cpu.dcache.ReadReq_mshr_miss_latency::.cpu.data    875271000                       # number of ReadReq MSHR miss cycles
system.cpu.dcache.ReadReq_mshr_miss_latency::total    875271000                       # number of ReadReq MSHR miss cycles
system.cpu.dcache.ReadReq_mshr_miss_rate::.cpu.data     0.001023                       # mshr miss rate for ReadReq accesses
system.cpu.dcache.ReadReq_mshr_miss_rate::total     0.001023                       # mshr miss rate for ReadReq accesses
system.cpu.dcache.ReadReq_avg_mshr_miss_latency::.cpu.data 39812.190130                       # average ReadReq mshr miss latency
system.cpu.dcache.ReadReq_avg_mshr_miss_latency::total 39812.190130                       # average ReadReq mshr miss latency
system.cpu.dcache.WriteReq_hits::.cpu.data     14195537                       # number of WriteReq hits
system.cpu.dcache.WriteReq_hits::total       14195537                       # number of WriteReq hits
system.cpu.dcache.WriteReq_misses::.cpu.data        59214                       # number of WriteReq misses
system.cpu.dcache.WriteReq_misses::total        59214                       # number of WriteReq misses
system.cpu.dcache.WriteReq_miss_latency::.cpu.data   5808005000                       # number of WriteReq miss cycles
system.cpu.dcache.WriteReq_miss_latency::total   5808005000                       # number of WriteReq miss cycles
system.cpu.dcache.WriteReq_accesses::.cpu.data     14254751                       # number of WriteReq accesses(hits+misses)
system.cpu.dcache.WriteReq_accesses::total     14254751                       # number of WriteReq accesses(hits+misses)
system.cpu.dcache.WriteReq_miss_rate::.cpu.data     0.004154                       # miss rate for WriteReq accesses
system.cpu.dcache.WriteReq_miss_rate::total     0.004154                       # miss rate for WriteReq accesses
system.cpu.dcache.WriteReq_avg_miss_latency::.cpu.data 98084.996791                       # average WriteReq miss latency
system.cpu.dcache.WriteReq_avg_miss_latency::total 98084.996791                       # average WriteReq miss latency
system.cpu.dcache.WriteReq_mshr_hits::.cpu.data        18114                       # number of WriteReq MSHR hits
system.cpu.dcache.WriteReq_mshr_hits::total        18114                       # number of WriteReq MSHR hits
system.cpu.dcache.WriteReq_mshr_misses::.cpu.data        41100                       # number of WriteReq MSHR misses
system.cpu.dcache.WriteReq_mshr_misses::total        41100                       # number of WriteReq MSHR misses
system.cpu.dcache.WriteReq_mshr_miss_latency::.cpu.data   4474393000                       # number of WriteReq MSHR miss cycles
system.cpu.dcache.WriteReq_mshr_miss_latency::total   4474393000                       # number of WriteReq MSHR miss cycles
system.cpu.dcache.WriteReq_mshr_miss_rate::.cpu.data     0.002883                       # mshr miss rate for WriteReq accesses
system.cpu.dcache.WriteReq_mshr_miss_rate::total     0.002883                       # mshr miss rate for WriteReq accesses
system.cpu.dcache.WriteReq_avg_mshr_miss_latency::.cpu.data 108866.009732                       # average WriteReq mshr miss latency
system.cpu.dcache.WriteReq_avg_mshr_miss_latency::total 108866.009732                       # average WriteReq mshr miss latency
system.cpu.dcache.SoftPFReq_hits::.cpu.data         3315                       # number of SoftPFReq hits
system.cpu.dcache.SoftPFReq_hits::total          3315                       # number of SoftPFReq hits
system.cpu.dcache.SoftPFReq_misses::.cpu.data           46                       # number of SoftPFReq misses
system.cpu.dcache.SoftPFReq_misses::total           46                       # number of SoftPFReq misses
system.cpu.dcache.SoftPFReq_accesses::.cpu.data         3361                       # number of SoftPFReq accesses(hits+misses)
system.cpu.dcache.SoftPFReq_accesses::total         3361                       # number of SoftPFReq accesses(hits+misses)
system.cpu.dcache.SoftPFReq_miss_rate::.cpu.data     0.013686                       # miss rate for SoftPFReq accesses
system.cpu.dcache.SoftPFReq_miss_rate::total     0.013686                       # miss rate for SoftPFReq accesses
system.cpu.dcache.SoftPFReq_mshr_misses::.cpu.data           41                       # number of SoftPFReq MSHR misses
system.cpu.dcache.SoftPFReq_mshr_misses::total           41                       # number of SoftPFReq MSHR misses
system.cpu.dcache.SoftPFReq_mshr_miss_latency::.cpu.data      2568000                       # number of SoftPFReq MSHR miss cycles
system.cpu.dcache.SoftPFReq_mshr_miss_latency::total      2568000                       # number of SoftPFReq MSHR miss cycles
system.cpu.dcache.SoftPFReq_mshr_miss_rate::.cpu.data     0.012199                       # mshr miss rate for SoftPFReq accesses
system.cpu.dcache.SoftPFReq_mshr_miss_rate::total     0.012199                       # mshr miss rate for SoftPFReq accesses
system.cpu.dcache.SoftPFReq_avg_mshr_miss_latency::.cpu.data 62634.146341                       # average SoftPFReq mshr miss latency
system.cpu.dcache.SoftPFReq_avg_mshr_miss_latency::total 62634.146341                       # average SoftPFReq mshr miss latency
system.cpu.dcache.LoadLockedReq_hits::.cpu.data        89081                       # number of LoadLockedReq hits
system.cpu.dcache.LoadLockedReq_hits::total        89081                       # number of LoadLockedReq hits
system.cpu.dcache.LoadLockedReq_misses::.cpu.data            1                       # number of LoadLockedReq misses
system.cpu.dcache.LoadLockedReq_misses::total            1                       # number of LoadLockedReq misses
system.cpu.dcache.LoadLockedReq_miss_latency::.cpu.data        26000                       # number of LoadLockedReq miss cycles
system.cpu.dcache.LoadLockedReq_miss_latency::total        26000                       # number of LoadLockedReq miss cycles
system.cpu.dcache.LoadLockedReq_accesses::.cpu.data        89082                       # number of LoadLockedReq accesses(hits+misses)
system.cpu.dcache.LoadLockedReq_accesses::total        89082                       # number of LoadLockedReq accesses(hits+misses)
system.cpu.dcache.LoadLockedReq_miss_rate::.cpu.data     0.000011                       # miss rate for LoadLockedReq accesses
system.cpu.dcache.LoadLockedReq_miss_rate::total     0.000011                       # miss rate for LoadLockedReq accesses
system.cpu.dcache.LoadLockedReq_avg_miss_latency::.cpu.data        26000                       # average LoadLockedReq miss latency
system.cpu.dcache.LoadLockedReq_avg_miss_latency::total        26000                       # average LoadLockedReq miss latency
system.cpu.dcache.LoadLockedReq_mshr_misses::.cpu.data            1                       # number of LoadLockedReq MSHR misses
system.cpu.dcache.LoadLockedReq_mshr_misses::total            1                       # number of LoadLockedReq MSHR misses
system.cpu.dcache.LoadLockedReq_mshr_miss_latency::.cpu.data        24000                       # number of LoadLockedReq MSHR miss cycles
system.cpu.dcache.LoadLockedReq_mshr_miss_latency::total        24000                       # number of LoadLockedReq MSHR miss cycles
system.cpu.dcache.LoadLockedReq_mshr_miss_rate::.cpu.data     0.000011                       # mshr miss rate for LoadLockedReq accesses
system.cpu.dcache.LoadLockedReq_mshr_miss_rate::total     0.000011                       # mshr miss rate for LoadLockedReq accesses
system.cpu.dcache.LoadLockedReq_avg_mshr_miss_latency::.cpu.data        24000                       # average LoadLockedReq mshr miss latency
system.cpu.dcache.LoadLockedReq_avg_mshr_miss_latency::total        24000                       # average LoadLockedReq mshr miss latency
system.cpu.dcache.StoreCondReq_hits::.cpu.data        89082                       # number of StoreCondReq hits
system.cpu.dcache.StoreCondReq_hits::total        89082                       # number of StoreCondReq hits
system.cpu.dcache.StoreCondReq_accesses::.cpu.data        89082                       # number of StoreCondReq accesses(hits+misses)
system.cpu.dcache.StoreCondReq_accesses::total        89082                       # number of StoreCondReq accesses(hits+misses)
system.cpu.dcache.tags.pwrStateResidencyTicks::UNDEFINED 114262385000                       # Cumulative time (in ticks) in various power states
system.cpu.dcache.tags.tagsinuse          2031.789323                       # Cycle average of tags in use
system.cpu.dcache.tags.total_refs            35896299                       # Total number of references to valid blocks.
system.cpu.dcache.tags.sampled_refs             63127                       # Sample count of references to valid blocks.
system.cpu.dcache.tags.avg_refs            568.636225                       # Average number of references to valid blocks.
system.cpu.dcache.tags.warmup_cycle            240000                       # Cycle when the warmup percentage was hit.
system.cpu.dcache.tags.occ_blocks::.cpu.data  2031.789323                       # Average occupied blocks per requestor
system.cpu.dcache.tags.occ_percent::.cpu.data     0.992085                       # Average percentage of cache occupancy
system.cpu.dcache.tags.occ_percent::total     0.992085                       # Average percentage of cache occupancy
system.cpu.dcache.tags.occ_task_id_blocks::1024         2048                       # Occupied blocks per task id
system.cpu.dcache.tags.age_task_id_blocks_1024::0            3                       # Occupied blocks per task id
system.cpu.dcache.tags.age_task_id_blocks_1024::1           21                       # Occupied blocks per task id
system.cpu.dcache.tags.age_task_id_blocks_1024::2          253                       # Occupied blocks per task id
system.cpu.dcache.tags.age_task_id_blocks_1024::3         1686                       # Occupied blocks per task id
system.cpu.dcache.tags.age_task_id_blocks_1024::4           85                       # Occupied blocks per task id
system.cpu.dcache.tags.occ_task_id_percent::1024            1                       # Percentage of cache occupancy per task id
system.cpu.dcache.tags.tag_accesses          35982039                       # Number of tag accesses
system.cpu.dcache.tags.data_accesses         35982039                       # Number of data accesses
system.cpu.itb.walker.pwrStateResidencyTicks::UNDEFINED 114262385000                       # Cumulative time (in ticks) in various power states
system.cpu.itb.stage2_mmu.stage2_tlb.walker.pwrStateResidencyTicks::UNDEFINED 114262385000                       # Cumulative time (in ticks) in various power states

---------- End Simulation Statistics   ----------
