
---------- Begin Simulation Statistics ----------
final_tick                               154664734000                       # Number of ticks from beginning of simulation (restored from checkpoints and never reset)
host_inst_rate                                 329395                       # Simulator instruction rate (inst/s)
host_mem_usage                                 694740                       # Number of bytes of host memory used
host_op_rate                                   330042                       # Simulator op (including micro ops) rate (op/s)
host_seconds                                   303.59                       # Real time elapsed on the host
host_tick_rate                              509457962                       # Simulator tick rate (ticks/s)
sim_freq                                 1000000000000                       # Frequency of simulated ticks
sim_insts                                   100000001                       # Number of instructions simulated
sim_ops                                     100196363                       # Number of ops (including micro ops) simulated
sim_seconds                                  0.154665                       # Number of seconds simulated
sim_ticks                                154664734000                       # Number of ticks simulated
system.cpu.branchPred.BTBCorrect                    0                       # Number of correct BTB predictions (this stat may not work properly.
system.cpu.branchPred.BTBHitPct             99.615957                       # BTB Hit Percentage
system.cpu.branchPred.BTBHits                 2095593                       # Number of BTB hits
system.cpu.branchPred.BTBLookups              2103672                       # Number of BTB lookups
system.cpu.branchPred.RASInCorrect                  5                       # Number of incorrect RAS predictions.
system.cpu.branchPred.condIncorrect             81389                       # Number of conditional branches incorrect
system.cpu.branchPred.condPredicted           3728232                       # Number of conditional branches predicted
system.cpu.branchPred.indirectHits                292                       # Number of indirect target hits.
system.cpu.branchPred.indirectLookups             999                       # Number of indirect predictor lookups.
system.cpu.branchPred.indirectMisses              707                       # Number of indirect misses.
system.cpu.branchPred.lookups                 4478343                       # Number of BP lookups
system.cpu.branchPred.usedRAS                   65360                       # Number of times the RAS was used to get a target.
system.cpu.branchPredindirectMispredicted          168                       # Number of mispredicted indirect branches.
system.cpu.committedInsts                   100000001                       # Number of instructions committed
system.cpu.committedOps                     100196363                       # Number of ops (including micro ops) committed
system.cpu.cpi                               1.546647                       # CPI: cycles per instruction
system.cpu.discardedOps                        190763                       # Number of ops (including micro ops) which were discarded before commit
system.cpu.dtb.accesses                             0                       # DTB accesses
system.cpu.dtb.align_faults                         0                       # Number of TLB faults due to alignment restrictions
system.cpu.dtb.domain_faults                        0                       # Number of TLB faults due to domain restrictions
system.cpu.dtb.flush_entries                        0                       # Number of entries that have been flushed from TLB
system.cpu.dtb.flush_tlb                            0                       # Number of times complete TLB was flushed
system.cpu.dtb.flush_tlb_asid                       0                       # Number of times TLB was flushed by ASID
system.cpu.dtb.flush_tlb_mva                        0                       # Number of times TLB was flushed by MVA
system.cpu.dtb.flush_tlb_mva_asid                   0                       # Number of times TLB was flushed by MVA & ASID
system.cpu.dtb.hits                                 0                       # DTB hits
system.cpu.dtb.inst_accesses                        0                       # ITB inst accesses
system.cpu.dtb.inst_hits                            0                       # ITB inst hits
system.cpu.dtb.inst_misses                          0                       # ITB inst misses
system.cpu.dtb.misses                               0                       # DTB misses
system.cpu.dtb.perms_faults                         0                       # Number of TLB faults due to permissions restrictions
system.cpu.dtb.prefetch_faults                      0                       # Number of TLB faults due to prefetch
system.cpu.dtb.read_accesses                        0                       # DTB read accesses
system.cpu.dtb.read_hits                            0                       # DTB read hits
system.cpu.dtb.read_misses                          0                       # DTB read misses
system.cpu.dtb.stage2_mmu.stage2_tlb.accesses            0                       # DTB accesses
system.cpu.dtb.stage2_mmu.stage2_tlb.align_faults            0                       # Number of TLB faults due to alignment restrictions
system.cpu.dtb.stage2_mmu.stage2_tlb.domain_faults            0                       # Number of TLB faults due to domain restrictions
system.cpu.dtb.stage2_mmu.stage2_tlb.flush_entries            0                       # Number of entries that have been flushed from TLB
system.cpu.dtb.stage2_mmu.stage2_tlb.flush_tlb            0                       # Number of times complete TLB was flushed
system.cpu.dtb.stage2_mmu.stage2_tlb.flush_tlb_asid            0                       # Number of times TLB was flushed by ASID
system.cpu.dtb.stage2_mmu.stage2_tlb.flush_tlb_mva            0                       # Number of times TLB was flushed by MVA
system.cpu.dtb.stage2_mmu.stage2_tlb.flush_tlb_mva_asid            0                       # Number of times TLB was flushed by MVA & ASID
system.cpu.dtb.stage2_mmu.stage2_tlb.hits            0                       # DTB hits
system.cpu.dtb.stage2_mmu.stage2_tlb.inst_accesses            0                       # ITB inst accesses
system.cpu.dtb.stage2_mmu.stage2_tlb.inst_hits            0                       # ITB inst hits
system.cpu.dtb.stage2_mmu.stage2_tlb.inst_misses            0                       # ITB inst misses
system.cpu.dtb.stage2_mmu.stage2_tlb.misses            0                       # DTB misses
system.cpu.dtb.stage2_mmu.stage2_tlb.perms_faults            0                       # Number of TLB faults due to permissions restrictions
system.cpu.dtb.stage2_mmu.stage2_tlb.prefetch_faults            0                       # Number of TLB faults due to prefetch
system.cpu.dtb.stage2_mmu.stage2_tlb.read_accesses            0                       # DTB read accesses
system.cpu.dtb.stage2_mmu.stage2_tlb.read_hits            0                       # DTB read hits
system.cpu.dtb.stage2_mmu.stage2_tlb.read_misses            0                       # DTB read misses
system.cpu.dtb.stage2_mmu.stage2_tlb.walker.walkRequestOrigin_Requested::Data            0                       # Table walker requests started/completed, data/inst
system.cpu.dtb.stage2_mmu.stage2_tlb.walker.walkRequestOrigin_Requested::Inst            0                       # Table walker requests started/completed, data/inst
system.cpu.dtb.stage2_mmu.stage2_tlb.walker.walkRequestOrigin_Requested::total            0                       # Table walker requests started/completed, data/inst
system.cpu.dtb.stage2_mmu.stage2_tlb.walker.walkRequestOrigin_Completed::Data            0                       # Table walker requests started/completed, data/inst
system.cpu.dtb.stage2_mmu.stage2_tlb.walker.walkRequestOrigin_Completed::Inst            0                       # Table walker requests started/completed, data/inst
system.cpu.dtb.stage2_mmu.stage2_tlb.walker.walkRequestOrigin_Completed::total            0                       # Table walker requests started/completed, data/inst
system.cpu.dtb.stage2_mmu.stage2_tlb.walker.walkRequestOrigin::total            0                       # Table walker requests started/completed, data/inst
system.cpu.dtb.stage2_mmu.stage2_tlb.walker.walks            0                       # Table walker walks requested
system.cpu.dtb.stage2_mmu.stage2_tlb.write_accesses            0                       # DTB write accesses
system.cpu.dtb.stage2_mmu.stage2_tlb.write_hits            0                       # DTB write hits
system.cpu.dtb.stage2_mmu.stage2_tlb.write_misses            0                       # DTB write misses
system.cpu.dtb.walker.walkRequestOrigin_Requested::Data            0                       # Table walker requests started/completed, data/inst
system.cpu.dtb.walker.walkRequestOrigin_Requested::Inst            0                       # Table walker requests started/completed, data/inst
system.cpu.dtb.walker.walkRequestOrigin_Requested::total            0                       # Table walker requests started/completed, data/inst
system.cpu.dtb.walker.walkRequestOrigin_Completed::Data            0                       # Table walker requests started/completed, data/inst
system.cpu.dtb.walker.walkRequestOrigin_Completed::Inst            0                       # Table walker requests started/completed, data/inst
system.cpu.dtb.walker.walkRequestOrigin_Completed::total            0                       # Table walker requests started/completed, data/inst
system.cpu.dtb.walker.walkRequestOrigin::total            0                       # Table walker requests started/completed, data/inst
system.cpu.dtb.walker.walks                         0                       # Table walker walks requested
system.cpu.dtb.write_accesses                       0                       # DTB write accesses
system.cpu.dtb.write_hits                           0                       # DTB write hits
system.cpu.dtb.write_misses                         0                       # DTB write misses
system.cpu.fetch2.amo_instructions                  0                       # Number of memory atomic instructions successfully decoded
system.cpu.fetch2.fp_instructions                   0                       # Number of floating point instructions successfully decoded
system.cpu.fetch2.int_instructions           42610593                       # Number of integer instructions successfully decoded
system.cpu.fetch2.load_instructions          43403242                       # Number of memory load instructions successfully decoded
system.cpu.fetch2.store_instructions         11001563                       # Number of memory store instructions successfully decoded
system.cpu.fetch2.vec_instructions                  0                       # Number of SIMD instructions successfully decoded
system.cpu.idleCycles                        22542627                       # Total number of cycles that the object has spent stopped
system.cpu.ipc                               0.646560                       # IPC: instructions per cycle
system.cpu.itb.accesses                             0                       # DTB accesses
system.cpu.itb.align_faults                         0                       # Number of TLB faults due to alignment restrictions
system.cpu.itb.domain_faults                        0                       # Number of TLB faults due to domain restrictions
system.cpu.itb.flush_entries                        0                       # Number of entries that have been flushed from TLB
system.cpu.itb.flush_tlb                            0                       # Number of times complete TLB was flushed
system.cpu.itb.flush_tlb_asid                       0                       # Number of times TLB was flushed by ASID
system.cpu.itb.flush_tlb_mva                        0                       # Number of times TLB was flushed by MVA
system.cpu.itb.flush_tlb_mva_asid                   0                       # Number of times TLB was flushed by MVA & ASID
system.cpu.itb.hits                                 0                       # DTB hits
system.cpu.itb.inst_accesses                        0                       # ITB inst accesses
system.cpu.itb.inst_hits                            0                       # ITB inst hits
system.cpu.itb.inst_misses                          0                       # ITB inst misses
system.cpu.itb.misses                               0                       # DTB misses
system.cpu.itb.perms_faults                         0                       # Number of TLB faults due to permissions restrictions
system.cpu.itb.prefetch_faults                      0                       # Number of TLB faults due to prefetch
system.cpu.itb.read_accesses                        0                       # DTB read accesses
system.cpu.itb.read_hits                            0                       # DTB read hits
system.cpu.itb.read_misses                          0                       # DTB read misses
system.cpu.itb.stage2_mmu.stage2_tlb.accesses            0                       # DTB accesses
system.cpu.itb.stage2_mmu.stage2_tlb.align_faults            0                       # Number of TLB faults due to alignment restrictions
system.cpu.itb.stage2_mmu.stage2_tlb.domain_faults            0                       # Number of TLB faults due to domain restrictions
system.cpu.itb.stage2_mmu.stage2_tlb.flush_entries            0                       # Number of entries that have been flushed from TLB
system.cpu.itb.stage2_mmu.stage2_tlb.flush_tlb            0                       # Number of times complete TLB was flushed
system.cpu.itb.stage2_mmu.stage2_tlb.flush_tlb_asid            0                       # Number of times TLB was flushed by ASID
system.cpu.itb.stage2_mmu.stage2_tlb.flush_tlb_mva            0                       # Number of times TLB was flushed by MVA
system.cpu.itb.stage2_mmu.stage2_tlb.flush_tlb_mva_asid            0                       # Number of times TLB was flushed by MVA & ASID
system.cpu.itb.stage2_mmu.stage2_tlb.hits            0                       # DTB hits
system.cpu.itb.stage2_mmu.stage2_tlb.inst_accesses            0                       # ITB inst accesses
system.cpu.itb.stage2_mmu.stage2_tlb.inst_hits            0                       # ITB inst hits
system.cpu.itb.stage2_mmu.stage2_tlb.inst_misses            0                       # ITB inst misses
system.cpu.itb.stage2_mmu.stage2_tlb.misses            0                       # DTB misses
system.cpu.itb.stage2_mmu.stage2_tlb.perms_faults            0                       # Number of TLB faults due to permissions restrictions
system.cpu.itb.stage2_mmu.stage2_tlb.prefetch_faults            0                       # Number of TLB faults due to prefetch
system.cpu.itb.stage2_mmu.stage2_tlb.read_accesses            0                       # DTB read accesses
system.cpu.itb.stage2_mmu.stage2_tlb.read_hits            0                       # DTB read hits
system.cpu.itb.stage2_mmu.stage2_tlb.read_misses            0                       # DTB read misses
system.cpu.itb.stage2_mmu.stage2_tlb.walker.walkRequestOrigin_Requested::Data            0                       # Table walker requests started/completed, data/inst
system.cpu.itb.stage2_mmu.stage2_tlb.walker.walkRequestOrigin_Requested::Inst            0                       # Table walker requests started/completed, data/inst
system.cpu.itb.stage2_mmu.stage2_tlb.walker.walkRequestOrigin_Requested::total            0                       # Table walker requests started/completed, data/inst
system.cpu.itb.stage2_mmu.stage2_tlb.walker.walkRequestOrigin_Completed::Data            0                       # Table walker requests started/completed, data/inst
system.cpu.itb.stage2_mmu.stage2_tlb.walker.walkRequestOrigin_Completed::Inst            0                       # Table walker requests started/completed, data/inst
system.cpu.itb.stage2_mmu.stage2_tlb.walker.walkRequestOrigin_Completed::total            0                       # Table walker requests started/completed, data/inst
system.cpu.itb.stage2_mmu.stage2_tlb.walker.walkRequestOrigin::total            0                       # Table walker requests started/completed, data/inst
system.cpu.itb.stage2_mmu.stage2_tlb.walker.walks            0                       # Table walker walks requested
system.cpu.itb.stage2_mmu.stage2_tlb.write_accesses            0                       # DTB write accesses
system.cpu.itb.stage2_mmu.stage2_tlb.write_hits            0                       # DTB write hits
system.cpu.itb.stage2_mmu.stage2_tlb.write_misses            0                       # DTB write misses
system.cpu.itb.walker.walkRequestOrigin_Requested::Data            0                       # Table walker requests started/completed, data/inst
system.cpu.itb.walker.walkRequestOrigin_Requested::Inst            0                       # Table walker requests started/completed, data/inst
system.cpu.itb.walker.walkRequestOrigin_Requested::total            0                       # Table walker requests started/completed, data/inst
system.cpu.itb.walker.walkRequestOrigin_Completed::Data            0                       # Table walker requests started/completed, data/inst
system.cpu.itb.walker.walkRequestOrigin_Completed::Inst            0                       # Table walker requests started/completed, data/inst
system.cpu.itb.walker.walkRequestOrigin_Completed::total            0                       # Table walker requests started/completed, data/inst
system.cpu.itb.walker.walkRequestOrigin::total            0                       # Table walker requests started/completed, data/inst
system.cpu.itb.walker.walks                         0                       # Table walker walks requested
system.cpu.itb.write_accesses                       0                       # DTB write accesses
system.cpu.itb.write_hits                           0                       # DTB write hits
system.cpu.itb.write_misses                         0                       # DTB write misses
system.cpu.numCycles                        154664734                       # number of cpu cycles simulated
system.cpu.numFetchSuspends                         0                       # Number of times Execute suspended instruction fetching
system.cpu.numWorkItemsCompleted                    0                       # number of work items this cpu completed
system.cpu.numWorkItemsStarted                      0                       # number of work items this cpu started
system.cpu.op_class_0::No_OpClass                   0      0.00%      0.00% # Class of committed instruction
system.cpu.op_class_0::IntAlu                46531400     46.44%     46.44% # Class of committed instruction
system.cpu.op_class_0::IntMult                  20720      0.02%     46.46% # Class of committed instruction
system.cpu.op_class_0::IntDiv                       0      0.00%     46.46% # Class of committed instruction
system.cpu.op_class_0::FloatAdd                     0      0.00%     46.46% # Class of committed instruction
system.cpu.op_class_0::FloatCmp                     0      0.00%     46.46% # Class of committed instruction
system.cpu.op_class_0::FloatCvt                     0      0.00%     46.46% # Class of committed instruction
system.cpu.op_class_0::FloatMult                    0      0.00%     46.46% # Class of committed instruction
system.cpu.op_class_0::FloatMultAcc                 0      0.00%     46.46% # Class of committed instruction
system.cpu.op_class_0::FloatDiv                     0      0.00%     46.46% # Class of committed instruction
system.cpu.op_class_0::FloatMisc                    0      0.00%     46.46% # Class of committed instruction
system.cpu.op_class_0::FloatSqrt                    0      0.00%     46.46% # Class of committed instruction
system.cpu.op_class_0::SimdAdd                      0      0.00%     46.46% # Class of committed instruction
system.cpu.op_class_0::SimdAddAcc                   0      0.00%     46.46% # Class of committed instruction
system.cpu.op_class_0::SimdAlu                      0      0.00%     46.46% # Class of committed instruction
system.cpu.op_class_0::SimdCmp                      0      0.00%     46.46% # Class of committed instruction
system.cpu.op_class_0::SimdCvt                      0      0.00%     46.46% # Class of committed instruction
system.cpu.op_class_0::SimdMisc                     0      0.00%     46.46% # Class of committed instruction
system.cpu.op_class_0::SimdMult                     0      0.00%     46.46% # Class of committed instruction
system.cpu.op_class_0::SimdMultAcc                  0      0.00%     46.46% # Class of committed instruction
system.cpu.op_class_0::SimdShift                    0      0.00%     46.46% # Class of committed instruction
system.cpu.op_class_0::SimdShiftAcc                 0      0.00%     46.46% # Class of committed instruction
system.cpu.op_class_0::SimdDiv                      0      0.00%     46.46% # Class of committed instruction
system.cpu.op_class_0::SimdSqrt                     0      0.00%     46.46% # Class of committed instruction
system.cpu.op_class_0::SimdFloatAdd                 0      0.00%     46.46% # Class of committed instruction
system.cpu.op_class_0::SimdFloatAlu                 0      0.00%     46.46% # Class of committed instruction
system.cpu.op_class_0::SimdFloatCmp                 0      0.00%     46.46% # Class of committed instruction
system.cpu.op_class_0::SimdFloatCvt                 0      0.00%     46.46% # Class of committed instruction
system.cpu.op_class_0::SimdFloatDiv                 0      0.00%     46.46% # Class of committed instruction
system.cpu.op_class_0::SimdFloatMisc               18      0.00%     46.46% # Class of committed instruction
system.cpu.op_class_0::SimdFloatMult                0      0.00%     46.46% # Class of committed instruction
system.cpu.op_class_0::SimdFloatMultAcc             0      0.00%     46.46% # Class of committed instruction
system.cpu.op_class_0::SimdFloatSqrt                0      0.00%     46.46% # Class of committed instruction
system.cpu.op_class_0::SimdReduceAdd                0      0.00%     46.46% # Class of committed instruction
system.cpu.op_class_0::SimdReduceAlu                0      0.00%     46.46% # Class of committed instruction
system.cpu.op_class_0::SimdReduceCmp                0      0.00%     46.46% # Class of committed instruction
system.cpu.op_class_0::SimdFloatReduceAdd            0      0.00%     46.46% # Class of committed instruction
system.cpu.op_class_0::SimdFloatReduceCmp            0      0.00%     46.46% # Class of committed instruction
system.cpu.op_class_0::SimdAes                      0      0.00%     46.46% # Class of committed instruction
system.cpu.op_class_0::SimdAesMix                   0      0.00%     46.46% # Class of committed instruction
system.cpu.op_class_0::SimdSha1Hash                 0      0.00%     46.46% # Class of committed instruction
system.cpu.op_class_0::SimdSha1Hash2                0      0.00%     46.46% # Class of committed instruction
system.cpu.op_class_0::SimdSha256Hash               0      0.00%     46.46% # Class of committed instruction
system.cpu.op_class_0::SimdSha256Hash2              0      0.00%     46.46% # Class of committed instruction
system.cpu.op_class_0::SimdShaSigma2                0      0.00%     46.46% # Class of committed instruction
system.cpu.op_class_0::SimdShaSigma3                0      0.00%     46.46% # Class of committed instruction
system.cpu.op_class_0::SimdPredAlu                  0      0.00%     46.46% # Class of committed instruction
system.cpu.op_class_0::MemRead               42693601     42.61%     89.07% # Class of committed instruction
system.cpu.op_class_0::MemWrite              10950624     10.93%    100.00% # Class of committed instruction
system.cpu.op_class_0::FloatMemRead                 0      0.00%    100.00% # Class of committed instruction
system.cpu.op_class_0::FloatMemWrite                0      0.00%    100.00% # Class of committed instruction
system.cpu.op_class_0::IprAccess                    0      0.00%    100.00% # Class of committed instruction
system.cpu.op_class_0::InstPrefetch                 0      0.00%    100.00% # Class of committed instruction
system.cpu.op_class_0::total                100196363                       # Class of committed instruction
system.cpu.tickCycles                       132122107                       # Number of cycles that the object actually ticked
system.cpu.workload.numSyscalls                    84                       # Number of system calls
system.membus.snoop_filter.hit_multi_requests            0                       # Number of requests hitting in the snoop filter with multiple (>1) holders of the requested data.
system.membus.snoop_filter.hit_multi_snoops            0                       # Number of snoops hitting in the snoop filter with multiple (>1) holders of the requested data.
system.membus.snoop_filter.hit_single_requests        76514                       # Number of requests hitting in the snoop filter with a single holder of the requested data.
system.membus.snoop_filter.hit_single_snoops            0                       # Number of snoops hitting in the snoop filter with a single holder of the requested data.
system.membus.snoop_filter.tot_requests        186148                       # Total number of requests made to the snoop filter.
system.membus.snoop_filter.tot_snoops               0                       # Total number of snoops made to the snoop filter.
system.tol2bus.snoop_filter.hit_multi_requests           77                       # Number of requests hitting in the snoop filter with multiple (>1) holders of the requested data.
system.tol2bus.snoop_filter.hit_multi_snoops            0                       # Number of snoops hitting in the snoop filter with multiple (>1) holders of the requested data.
system.tol2bus.snoop_filter.hit_single_requests       420836                       # Number of requests hitting in the snoop filter with a single holder of the requested data.
system.tol2bus.snoop_filter.hit_single_snoops          375                       # Number of snoops hitting in the snoop filter with a single holder of the requested data.
system.tol2bus.snoop_filter.tot_requests       843113                       # Total number of requests made to the snoop filter.
system.tol2bus.snoop_filter.tot_snoops            375                       # Total number of snoops made to the snoop filter.
system.membus.pwrStateResidencyTicks::UNDEFINED 154664734000                       # Cumulative time (in ticks) in various power states
system.membus.trans_dist::ReadResp              30393                       # Transaction distribution
system.membus.trans_dist::WritebackDirty        48820                       # Transaction distribution
system.membus.trans_dist::CleanEvict            27683                       # Transaction distribution
system.membus.trans_dist::ReadExReq             79252                       # Transaction distribution
system.membus.trans_dist::ReadExResp            79252                       # Transaction distribution
system.membus.trans_dist::ReadSharedReq         30393                       # Transaction distribution
system.membus.pkt_count_system.l2.mem_side::system.mem_ctrls.port       295793                       # Packet count per connected master and slave (bytes)
system.membus.pkt_count::total                 295793                       # Packet count per connected master and slave (bytes)
system.membus.pkt_size_system.l2.mem_side::system.mem_ctrls.port     20283520                       # Cumulative packet size per connected master and slave (bytes)
system.membus.pkt_size::total                20283520                       # Cumulative packet size per connected master and slave (bytes)
system.membus.snoops                                0                       # Total snoops (count)
system.membus.snoopTraffic                          0                       # Total snoop traffic (bytes)
system.membus.snoop_fanout::samples            109645                       # Request fanout histogram
system.membus.snoop_fanout::mean                    0                       # Request fanout histogram
system.membus.snoop_fanout::stdev                   0                       # Request fanout histogram
system.membus.snoop_fanout::underflows              0      0.00%      0.00% # Request fanout histogram
system.membus.snoop_fanout::0                  109645    100.00%    100.00% # Request fanout histogram
system.membus.snoop_fanout::1                       0      0.00%    100.00% # Request fanout histogram
system.membus.snoop_fanout::overflows               0      0.00%    100.00% # Request fanout histogram
system.membus.snoop_fanout::min_value               0                       # Request fanout histogram
system.membus.snoop_fanout::max_value               0                       # Request fanout histogram
system.membus.snoop_fanout::total              109645                       # Request fanout histogram
system.membus.respLayer1.occupancy         1023315000                       # Layer occupancy (ticks)
system.membus.respLayer1.utilization              0.7                       # Layer utilization (%)
system.membus.reqLayer0.occupancy           576708000                       # Layer occupancy (ticks)
system.membus.reqLayer0.utilization               0.4                       # Layer utilization (%)
system.tol2bus.pwrStateResidencyTicks::UNDEFINED 154664734000                       # Cumulative time (in ticks) in various power states
system.tol2bus.trans_dist::ReadResp            215050                       # Transaction distribution
system.tol2bus.trans_dist::WritebackDirty       435040                       # Transaction distribution
system.tol2bus.trans_dist::CleanEvict           62672                       # Transaction distribution
system.tol2bus.trans_dist::ReadExReq           207229                       # Transaction distribution
system.tol2bus.trans_dist::ReadExResp          207228                       # Transaction distribution
system.tol2bus.trans_dist::ReadCleanReq           420                       # Transaction distribution
system.tol2bus.trans_dist::ReadSharedReq       214630                       # Transaction distribution
system.tol2bus.pkt_count_system.cpu.icache.mem_side::system.l2.cpu_side          840                       # Packet count per connected master and slave (bytes)
system.tol2bus.pkt_count_system.cpu.dcache.mem_side::system.l2.cpu_side      1264551                       # Packet count per connected master and slave (bytes)
system.tol2bus.pkt_count::total               1265391                       # Packet count per connected master and slave (bytes)
system.tol2bus.pkt_size_system.cpu.icache.mem_side::system.l2.cpu_side        53760                       # Cumulative packet size per connected master and slave (bytes)
system.tol2bus.pkt_size_system.cpu.dcache.mem_side::system.l2.cpu_side    103433984                       # Cumulative packet size per connected master and slave (bytes)
system.tol2bus.pkt_size::total              103487744                       # Cumulative packet size per connected master and slave (bytes)
system.tol2bus.snoops                           76878                       # Total snoops (count)
system.tol2bus.snoopTraffic                   6248960                       # Total snoop traffic (bytes)
system.tol2bus.snoop_fanout::samples           499157                       # Request fanout histogram
system.tol2bus.snoop_fanout::mean            0.000910                       # Request fanout histogram
system.tol2bus.snoop_fanout::stdev           0.030145                       # Request fanout histogram
system.tol2bus.snoop_fanout::underflows             0      0.00%      0.00% # Request fanout histogram
system.tol2bus.snoop_fanout::0                 498703     99.91%     99.91% # Request fanout histogram
system.tol2bus.snoop_fanout::1                    454      0.09%    100.00% # Request fanout histogram
system.tol2bus.snoop_fanout::2                      0      0.00%    100.00% # Request fanout histogram
system.tol2bus.snoop_fanout::overflows              0      0.00%    100.00% # Request fanout histogram
system.tol2bus.snoop_fanout::min_value              0                       # Request fanout histogram
system.tol2bus.snoop_fanout::max_value              1                       # Request fanout histogram
system.tol2bus.snoop_fanout::total             499157                       # Request fanout histogram
system.tol2bus.reqLayer0.occupancy         2387993000                       # Layer occupancy (ticks)
system.tol2bus.reqLayer0.utilization              1.5                       # Layer utilization (%)
system.tol2bus.respLayer1.occupancy        2109294995                       # Layer occupancy (ticks)
system.tol2bus.respLayer1.utilization             1.4                       # Layer utilization (%)
system.tol2bus.respLayer0.occupancy           2100000                       # Layer occupancy (ticks)
system.tol2bus.respLayer0.utilization             0.0                       # Layer utilization (%)
system.voltage_domain.voltage                       1                       # Voltage in Volts
system.clk_domain.clock                          1000                       # Clock period in ticks
system.l2.pwrStateResidencyTicks::UNDEFINED 154664734000                       # Cumulative time (in ticks) in various power states
system.l2.demand_hits::.cpu.inst                   15                       # number of demand (read+write) hits
system.l2.demand_hits::.cpu.data               312614                       # number of demand (read+write) hits
system.l2.demand_hits::total                   312629                       # number of demand (read+write) hits
system.l2.overall_hits::.cpu.inst                  15                       # number of overall hits
system.l2.overall_hits::.cpu.data              312614                       # number of overall hits
system.l2.overall_hits::total                  312629                       # number of overall hits
system.l2.demand_misses::.cpu.inst                405                       # number of demand (read+write) misses
system.l2.demand_misses::.cpu.data             109245                       # number of demand (read+write) misses
system.l2.demand_misses::total                 109650                       # number of demand (read+write) misses
system.l2.overall_misses::.cpu.inst               405                       # number of overall misses
system.l2.overall_misses::.cpu.data            109245                       # number of overall misses
system.l2.overall_misses::total                109650                       # number of overall misses
system.l2.demand_miss_latency::.cpu.inst     42671000                       # number of demand (read+write) miss cycles
system.l2.demand_miss_latency::.cpu.data  11898719000                       # number of demand (read+write) miss cycles
system.l2.demand_miss_latency::total      11941390000                       # number of demand (read+write) miss cycles
system.l2.overall_miss_latency::.cpu.inst     42671000                       # number of overall miss cycles
system.l2.overall_miss_latency::.cpu.data  11898719000                       # number of overall miss cycles
system.l2.overall_miss_latency::total     11941390000                       # number of overall miss cycles
system.l2.demand_accesses::.cpu.inst              420                       # number of demand (read+write) accesses
system.l2.demand_accesses::.cpu.data           421859                       # number of demand (read+write) accesses
system.l2.demand_accesses::total               422279                       # number of demand (read+write) accesses
system.l2.overall_accesses::.cpu.inst             420                       # number of overall (read+write) accesses
system.l2.overall_accesses::.cpu.data          421859                       # number of overall (read+write) accesses
system.l2.overall_accesses::total              422279                       # number of overall (read+write) accesses
system.l2.demand_miss_rate::.cpu.inst        0.964286                       # miss rate for demand accesses
system.l2.demand_miss_rate::.cpu.data        0.258961                       # miss rate for demand accesses
system.l2.demand_miss_rate::total            0.259662                       # miss rate for demand accesses
system.l2.overall_miss_rate::.cpu.inst       0.964286                       # miss rate for overall accesses
system.l2.overall_miss_rate::.cpu.data       0.258961                       # miss rate for overall accesses
system.l2.overall_miss_rate::total           0.259662                       # miss rate for overall accesses
system.l2.demand_avg_miss_latency::.cpu.inst 105360.493827                       # average overall miss latency
system.l2.demand_avg_miss_latency::.cpu.data 108917.744519                       # average overall miss latency
system.l2.demand_avg_miss_latency::total 108904.605563                       # average overall miss latency
system.l2.overall_avg_miss_latency::.cpu.inst 105360.493827                       # average overall miss latency
system.l2.overall_avg_miss_latency::.cpu.data 108917.744519                       # average overall miss latency
system.l2.overall_avg_miss_latency::total 108904.605563                       # average overall miss latency
system.l2.blocked_cycles::no_mshrs                  0                       # number of cycles access was blocked
system.l2.blocked_cycles::no_targets                0                       # number of cycles access was blocked
system.l2.blocked::no_mshrs                         0                       # number of cycles access was blocked
system.l2.blocked::no_targets                       0                       # number of cycles access was blocked
system.l2.avg_blocked_cycles::no_mshrs            nan                       # average number of cycles each access was blocked
system.l2.avg_blocked_cycles::no_targets          nan                       # average number of cycles each access was blocked
system.l2.writebacks::.writebacks               48820                       # number of writebacks
system.l2.writebacks::total                     48820                       # number of writebacks
system.l2.demand_mshr_hits::.cpu.data               5                       # number of demand (read+write) MSHR hits
system.l2.demand_mshr_hits::total                   5                       # number of demand (read+write) MSHR hits
system.l2.overall_mshr_hits::.cpu.data              5                       # number of overall MSHR hits
system.l2.overall_mshr_hits::total                  5                       # number of overall MSHR hits
system.l2.demand_mshr_misses::.cpu.inst           405                       # number of demand (read+write) MSHR misses
system.l2.demand_mshr_misses::.cpu.data        109240                       # number of demand (read+write) MSHR misses
system.l2.demand_mshr_misses::total            109645                       # number of demand (read+write) MSHR misses
system.l2.overall_mshr_misses::.cpu.inst          405                       # number of overall MSHR misses
system.l2.overall_mshr_misses::.cpu.data       109240                       # number of overall MSHR misses
system.l2.overall_mshr_misses::total           109645                       # number of overall MSHR misses
system.l2.demand_mshr_miss_latency::.cpu.inst     34571000                       # number of demand (read+write) MSHR miss cycles
system.l2.demand_mshr_miss_latency::.cpu.data   9713483000                       # number of demand (read+write) MSHR miss cycles
system.l2.demand_mshr_miss_latency::total   9748054000                       # number of demand (read+write) MSHR miss cycles
system.l2.overall_mshr_miss_latency::.cpu.inst     34571000                       # number of overall MSHR miss cycles
system.l2.overall_mshr_miss_latency::.cpu.data   9713483000                       # number of overall MSHR miss cycles
system.l2.overall_mshr_miss_latency::total   9748054000                       # number of overall MSHR miss cycles
system.l2.demand_mshr_miss_rate::.cpu.inst     0.964286                       # mshr miss rate for demand accesses
system.l2.demand_mshr_miss_rate::.cpu.data     0.258949                       # mshr miss rate for demand accesses
system.l2.demand_mshr_miss_rate::total       0.259651                       # mshr miss rate for demand accesses
system.l2.overall_mshr_miss_rate::.cpu.inst     0.964286                       # mshr miss rate for overall accesses
system.l2.overall_mshr_miss_rate::.cpu.data     0.258949                       # mshr miss rate for overall accesses
system.l2.overall_mshr_miss_rate::total      0.259651                       # mshr miss rate for overall accesses
system.l2.demand_avg_mshr_miss_latency::.cpu.inst 85360.493827                       # average overall mshr miss latency
system.l2.demand_avg_mshr_miss_latency::.cpu.data 88918.738557                       # average overall mshr miss latency
system.l2.demand_avg_mshr_miss_latency::total 88905.595330                       # average overall mshr miss latency
system.l2.overall_avg_mshr_miss_latency::.cpu.inst 85360.493827                       # average overall mshr miss latency
system.l2.overall_avg_mshr_miss_latency::.cpu.data 88918.738557                       # average overall mshr miss latency
system.l2.overall_avg_mshr_miss_latency::total 88905.595330                       # average overall mshr miss latency
system.l2.replacements                          76878                       # number of replacements
system.l2.WritebackDirty_hits::.writebacks       386220                       # number of WritebackDirty hits
system.l2.WritebackDirty_hits::total           386220                       # number of WritebackDirty hits
system.l2.WritebackDirty_accesses::.writebacks       386220                       # number of WritebackDirty accesses(hits+misses)
system.l2.WritebackDirty_accesses::total       386220                       # number of WritebackDirty accesses(hits+misses)
system.l2.ReadExReq_hits::.cpu.data            127977                       # number of ReadExReq hits
system.l2.ReadExReq_hits::total                127977                       # number of ReadExReq hits
system.l2.ReadExReq_misses::.cpu.data           79252                       # number of ReadExReq misses
system.l2.ReadExReq_misses::total               79252                       # number of ReadExReq misses
system.l2.ReadExReq_miss_latency::.cpu.data   8798218000                       # number of ReadExReq miss cycles
system.l2.ReadExReq_miss_latency::total    8798218000                       # number of ReadExReq miss cycles
system.l2.ReadExReq_accesses::.cpu.data        207229                       # number of ReadExReq accesses(hits+misses)
system.l2.ReadExReq_accesses::total            207229                       # number of ReadExReq accesses(hits+misses)
system.l2.ReadExReq_miss_rate::.cpu.data     0.382437                       # miss rate for ReadExReq accesses
system.l2.ReadExReq_miss_rate::total         0.382437                       # miss rate for ReadExReq accesses
system.l2.ReadExReq_avg_miss_latency::.cpu.data 111015.722001                       # average ReadExReq miss latency
system.l2.ReadExReq_avg_miss_latency::total 111015.722001                       # average ReadExReq miss latency
system.l2.ReadExReq_mshr_misses::.cpu.data        79252                       # number of ReadExReq MSHR misses
system.l2.ReadExReq_mshr_misses::total          79252                       # number of ReadExReq MSHR misses
system.l2.ReadExReq_mshr_miss_latency::.cpu.data   7213178000                       # number of ReadExReq MSHR miss cycles
system.l2.ReadExReq_mshr_miss_latency::total   7213178000                       # number of ReadExReq MSHR miss cycles
system.l2.ReadExReq_mshr_miss_rate::.cpu.data     0.382437                       # mshr miss rate for ReadExReq accesses
system.l2.ReadExReq_mshr_miss_rate::total     0.382437                       # mshr miss rate for ReadExReq accesses
system.l2.ReadExReq_avg_mshr_miss_latency::.cpu.data 91015.722001                       # average ReadExReq mshr miss latency
system.l2.ReadExReq_avg_mshr_miss_latency::total 91015.722001                       # average ReadExReq mshr miss latency
system.l2.ReadCleanReq_hits::.cpu.inst             15                       # number of ReadCleanReq hits
system.l2.ReadCleanReq_hits::total                 15                       # number of ReadCleanReq hits
system.l2.ReadCleanReq_misses::.cpu.inst          405                       # number of ReadCleanReq misses
system.l2.ReadCleanReq_misses::total              405                       # number of ReadCleanReq misses
system.l2.ReadCleanReq_miss_latency::.cpu.inst     42671000                       # number of ReadCleanReq miss cycles
system.l2.ReadCleanReq_miss_latency::total     42671000                       # number of ReadCleanReq miss cycles
system.l2.ReadCleanReq_accesses::.cpu.inst          420                       # number of ReadCleanReq accesses(hits+misses)
system.l2.ReadCleanReq_accesses::total            420                       # number of ReadCleanReq accesses(hits+misses)
system.l2.ReadCleanReq_miss_rate::.cpu.inst     0.964286                       # miss rate for ReadCleanReq accesses
system.l2.ReadCleanReq_miss_rate::total      0.964286                       # miss rate for ReadCleanReq accesses
system.l2.ReadCleanReq_avg_miss_latency::.cpu.inst 105360.493827                       # average ReadCleanReq miss latency
system.l2.ReadCleanReq_avg_miss_latency::total 105360.493827                       # average ReadCleanReq miss latency
system.l2.ReadCleanReq_mshr_misses::.cpu.inst          405                       # number of ReadCleanReq MSHR misses
system.l2.ReadCleanReq_mshr_misses::total          405                       # number of ReadCleanReq MSHR misses
system.l2.ReadCleanReq_mshr_miss_latency::.cpu.inst     34571000                       # number of ReadCleanReq MSHR miss cycles
system.l2.ReadCleanReq_mshr_miss_latency::total     34571000                       # number of ReadCleanReq MSHR miss cycles
system.l2.ReadCleanReq_mshr_miss_rate::.cpu.inst     0.964286                       # mshr miss rate for ReadCleanReq accesses
system.l2.ReadCleanReq_mshr_miss_rate::total     0.964286                       # mshr miss rate for ReadCleanReq accesses
system.l2.ReadCleanReq_avg_mshr_miss_latency::.cpu.inst 85360.493827                       # average ReadCleanReq mshr miss latency
system.l2.ReadCleanReq_avg_mshr_miss_latency::total 85360.493827                       # average ReadCleanReq mshr miss latency
system.l2.ReadSharedReq_hits::.cpu.data        184637                       # number of ReadSharedReq hits
system.l2.ReadSharedReq_hits::total            184637                       # number of ReadSharedReq hits
system.l2.ReadSharedReq_misses::.cpu.data        29993                       # number of ReadSharedReq misses
system.l2.ReadSharedReq_misses::total           29993                       # number of ReadSharedReq misses
system.l2.ReadSharedReq_miss_latency::.cpu.data   3100501000                       # number of ReadSharedReq miss cycles
system.l2.ReadSharedReq_miss_latency::total   3100501000                       # number of ReadSharedReq miss cycles
system.l2.ReadSharedReq_accesses::.cpu.data       214630                       # number of ReadSharedReq accesses(hits+misses)
system.l2.ReadSharedReq_accesses::total        214630                       # number of ReadSharedReq accesses(hits+misses)
system.l2.ReadSharedReq_miss_rate::.cpu.data     0.139743                       # miss rate for ReadSharedReq accesses
system.l2.ReadSharedReq_miss_rate::total     0.139743                       # miss rate for ReadSharedReq accesses
system.l2.ReadSharedReq_avg_miss_latency::.cpu.data 103374.153969                       # average ReadSharedReq miss latency
system.l2.ReadSharedReq_avg_miss_latency::total 103374.153969                       # average ReadSharedReq miss latency
system.l2.ReadSharedReq_mshr_hits::.cpu.data            5                       # number of ReadSharedReq MSHR hits
system.l2.ReadSharedReq_mshr_hits::total            5                       # number of ReadSharedReq MSHR hits
system.l2.ReadSharedReq_mshr_misses::.cpu.data        29988                       # number of ReadSharedReq MSHR misses
system.l2.ReadSharedReq_mshr_misses::total        29988                       # number of ReadSharedReq MSHR misses
system.l2.ReadSharedReq_mshr_miss_latency::.cpu.data   2500305000                       # number of ReadSharedReq MSHR miss cycles
system.l2.ReadSharedReq_mshr_miss_latency::total   2500305000                       # number of ReadSharedReq MSHR miss cycles
system.l2.ReadSharedReq_mshr_miss_rate::.cpu.data     0.139720                       # mshr miss rate for ReadSharedReq accesses
system.l2.ReadSharedReq_mshr_miss_rate::total     0.139720                       # mshr miss rate for ReadSharedReq accesses
system.l2.ReadSharedReq_avg_mshr_miss_latency::.cpu.data 83376.850740                       # average ReadSharedReq mshr miss latency
system.l2.ReadSharedReq_avg_mshr_miss_latency::total 83376.850740                       # average ReadSharedReq mshr miss latency
system.l2.tags.pwrStateResidencyTicks::UNDEFINED 154664734000                       # Cumulative time (in ticks) in various power states
system.l2.tags.tagsinuse                 31938.604309                       # Cycle average of tags in use
system.l2.tags.total_refs                      843031                       # Total number of references to valid blocks.
system.l2.tags.sampled_refs                    109646                       # Sample count of references to valid blocks.
system.l2.tags.avg_refs                      7.688662                       # Average number of references to valid blocks.
system.l2.tags.warmup_cycle                     92000                       # Cycle when the warmup percentage was hit.
system.l2.tags.occ_blocks::.writebacks       0.038402                       # Average occupied blocks per requestor
system.l2.tags.occ_blocks::.cpu.inst        57.188842                       # Average occupied blocks per requestor
system.l2.tags.occ_blocks::.cpu.data     31881.377065                       # Average occupied blocks per requestor
system.l2.tags.occ_percent::.writebacks      0.000001                       # Average percentage of cache occupancy
system.l2.tags.occ_percent::.cpu.inst        0.001745                       # Average percentage of cache occupancy
system.l2.tags.occ_percent::.cpu.data        0.972942                       # Average percentage of cache occupancy
system.l2.tags.occ_percent::total            0.974689                       # Average percentage of cache occupancy
system.l2.tags.occ_task_id_blocks::1024         32768                       # Occupied blocks per task id
system.l2.tags.age_task_id_blocks_1024::1            2                       # Occupied blocks per task id
system.l2.tags.age_task_id_blocks_1024::2            9                       # Occupied blocks per task id
system.l2.tags.age_task_id_blocks_1024::3          210                       # Occupied blocks per task id
system.l2.tags.age_task_id_blocks_1024::4        32547                       # Occupied blocks per task id
system.l2.tags.occ_task_id_percent::1024            1                       # Percentage of cache occupancy per task id
system.l2.tags.tag_accesses                   1795718                       # Number of tag accesses
system.l2.tags.data_accesses                  1795718                       # Number of data accesses
system.cpu_voltage_domain.voltage                   1                       # Voltage in Volts
system.mem_ctrls.pwrStateResidencyTicks::UNDEFINED 154664734000                       # Cumulative time (in ticks) in various power states
system.mem_ctrls.bytes_read::.cpu.inst          51840                       # Number of bytes read from this memory
system.mem_ctrls.bytes_read::.cpu.data       13982720                       # Number of bytes read from this memory
system.mem_ctrls.bytes_read::total           14034560                       # Number of bytes read from this memory
system.mem_ctrls.bytes_inst_read::.cpu.inst        51840                       # Number of instructions bytes read from this memory
system.mem_ctrls.bytes_inst_read::total         51840                       # Number of instructions bytes read from this memory
system.mem_ctrls.bytes_written::.writebacks      6248960                       # Number of bytes written to this memory
system.mem_ctrls.bytes_written::total         6248960                       # Number of bytes written to this memory
system.mem_ctrls.num_reads::.cpu.inst             405                       # Number of read requests responded to by this memory
system.mem_ctrls.num_reads::.cpu.data          109240                       # Number of read requests responded to by this memory
system.mem_ctrls.num_reads::total              109645                       # Number of read requests responded to by this memory
system.mem_ctrls.num_writes::.writebacks        48820                       # Number of write requests responded to by this memory
system.mem_ctrls.num_writes::total              48820                       # Number of write requests responded to by this memory
system.mem_ctrls.bw_read::.cpu.inst            335177                       # Total read bandwidth from this memory (bytes/s)
system.mem_ctrls.bw_read::.cpu.data          90406647                       # Total read bandwidth from this memory (bytes/s)
system.mem_ctrls.bw_read::total              90741824                       # Total read bandwidth from this memory (bytes/s)
system.mem_ctrls.bw_inst_read::.cpu.inst       335177                       # Instruction read bandwidth from this memory (bytes/s)
system.mem_ctrls.bw_inst_read::total           335177                       # Instruction read bandwidth from this memory (bytes/s)
system.mem_ctrls.bw_write::.writebacks       40403263                       # Write bandwidth from this memory (bytes/s)
system.mem_ctrls.bw_write::total             40403263                       # Write bandwidth from this memory (bytes/s)
system.mem_ctrls.bw_total::.writebacks       40403263                       # Total bandwidth to/from this memory (bytes/s)
system.mem_ctrls.bw_total::.cpu.inst           335177                       # Total bandwidth to/from this memory (bytes/s)
system.mem_ctrls.bw_total::.cpu.data         90406647                       # Total bandwidth to/from this memory (bytes/s)
system.mem_ctrls.bw_total::total            131145087                       # Total bandwidth to/from this memory (bytes/s)
system.mem_ctrls.avgPriority_.writebacks::samples     97640.00                       # Average QoS priority value for accepted requests
system.mem_ctrls.avgPriority_.cpu.inst::samples       810.00                       # Average QoS priority value for accepted requests
system.mem_ctrls.avgPriority_.cpu.data::samples    218447.00                       # Average QoS priority value for accepted requests
system.mem_ctrls.priorityMinLatency      0.000000018750                       # per QoS priority minimum request to response latency (s)
system.mem_ctrls.priorityMaxLatency      0.040012977500                       # per QoS priority maximum request to response latency (s)
system.mem_ctrls.numReadWriteTurnArounds         5912                       # Number of turnarounds from READ to WRITE
system.mem_ctrls.numWriteReadTurnArounds         5912                       # Number of turnarounds from WRITE to READ
system.mem_ctrls.numStayReadState              408598                       # Number of times bus staying in READ state
system.mem_ctrls.numStayWriteState              91788                       # Number of times bus staying in WRITE state
system.mem_ctrls.readReqs                      109645                       # Number of read requests accepted
system.mem_ctrls.writeReqs                      48820                       # Number of write requests accepted
system.mem_ctrls.readBursts                    219290                       # Number of DRAM read bursts, including those serviced by the write queue
system.mem_ctrls.writeBursts                    97640                       # Number of DRAM write bursts, including those merged in the write queue
system.mem_ctrls.servicedByWrQ                     33                       # Number of DRAM read bursts serviced by the write queue
system.mem_ctrls.mergedWrBursts                     0                       # Number of DRAM write bursts merged with an existing one
system.mem_ctrls.neitherReadNorWriteReqs            0                       # Number of requests that are neither read nor write
system.mem_ctrls.perBankRdBursts::0             13912                       # Per bank write bursts
system.mem_ctrls.perBankRdBursts::1             13844                       # Per bank write bursts
system.mem_ctrls.perBankRdBursts::2             13768                       # Per bank write bursts
system.mem_ctrls.perBankRdBursts::3             13420                       # Per bank write bursts
system.mem_ctrls.perBankRdBursts::4             13560                       # Per bank write bursts
system.mem_ctrls.perBankRdBursts::5             13596                       # Per bank write bursts
system.mem_ctrls.perBankRdBursts::6             13528                       # Per bank write bursts
system.mem_ctrls.perBankRdBursts::7             13690                       # Per bank write bursts
system.mem_ctrls.perBankRdBursts::8             13727                       # Per bank write bursts
system.mem_ctrls.perBankRdBursts::9             13712                       # Per bank write bursts
system.mem_ctrls.perBankRdBursts::10            13940                       # Per bank write bursts
system.mem_ctrls.perBankRdBursts::11            13876                       # Per bank write bursts
system.mem_ctrls.perBankRdBursts::12            13872                       # Per bank write bursts
system.mem_ctrls.perBankRdBursts::13            13630                       # Per bank write bursts
system.mem_ctrls.perBankRdBursts::14            13482                       # Per bank write bursts
system.mem_ctrls.perBankRdBursts::15            13700                       # Per bank write bursts
system.mem_ctrls.perBankWrBursts::0              6196                       # Per bank write bursts
system.mem_ctrls.perBankWrBursts::1              6264                       # Per bank write bursts
system.mem_ctrls.perBankWrBursts::2              6176                       # Per bank write bursts
system.mem_ctrls.perBankWrBursts::3              6076                       # Per bank write bursts
system.mem_ctrls.perBankWrBursts::4              6034                       # Per bank write bursts
system.mem_ctrls.perBankWrBursts::5              6041                       # Per bank write bursts
system.mem_ctrls.perBankWrBursts::6              5912                       # Per bank write bursts
system.mem_ctrls.perBankWrBursts::7              5980                       # Per bank write bursts
system.mem_ctrls.perBankWrBursts::8              6118                       # Per bank write bursts
system.mem_ctrls.perBankWrBursts::9              6062                       # Per bank write bursts
system.mem_ctrls.perBankWrBursts::10             6114                       # Per bank write bursts
system.mem_ctrls.perBankWrBursts::11             6106                       # Per bank write bursts
system.mem_ctrls.perBankWrBursts::12             6164                       # Per bank write bursts
system.mem_ctrls.perBankWrBursts::13             6142                       # Per bank write bursts
system.mem_ctrls.perBankWrBursts::14             6100                       # Per bank write bursts
system.mem_ctrls.perBankWrBursts::15             6124                       # Per bank write bursts
system.mem_ctrls.avgRdQLen                       2.02                       # Average read queue length when enqueuing
system.mem_ctrls.avgWrQLen                      25.62                       # Average write queue length when enqueuing
system.mem_ctrls.totQLat                   3564638750                       # Total ticks spent queuing
system.mem_ctrls.totBusLat                 1096285000                       # Total ticks spent in databus transfers
system.mem_ctrls.totMemAccLat              7675707500                       # Total ticks spent from burst creation until serviced by the DRAM
system.mem_ctrls.avgQLat                     16257.81                       # Average queueing delay per DRAM burst
system.mem_ctrls.avgBusLat                    5000.00                       # Average bus latency per DRAM burst
system.mem_ctrls.avgMemAccLat                35007.81                       # Average memory access latency per DRAM burst
system.mem_ctrls.numRdRetry                         0                       # Number of times read queue was full causing retry
system.mem_ctrls.numWrRetry                         0                       # Number of times write queue was full causing retry
system.mem_ctrls.readRowHits                   183902                       # Number of row buffer hits during reads
system.mem_ctrls.writeRowHits                   82941                       # Number of row buffer hits during writes
system.mem_ctrls.readRowHitRate                 83.88                       # Row buffer hit rate for reads
system.mem_ctrls.writeRowHitRate                84.95                       # Row buffer hit rate for writes
system.mem_ctrls.readPktSize::0                     0                       # Read request sizes (log2)
system.mem_ctrls.readPktSize::1                     0                       # Read request sizes (log2)
system.mem_ctrls.readPktSize::2                     0                       # Read request sizes (log2)
system.mem_ctrls.readPktSize::3                     0                       # Read request sizes (log2)
system.mem_ctrls.readPktSize::4                     0                       # Read request sizes (log2)
system.mem_ctrls.readPktSize::5                     0                       # Read request sizes (log2)
system.mem_ctrls.readPktSize::6                219290                       # Read request sizes (log2)
system.mem_ctrls.writePktSize::0                    0                       # Write request sizes (log2)
system.mem_ctrls.writePktSize::1                    0                       # Write request sizes (log2)
system.mem_ctrls.writePktSize::2                    0                       # Write request sizes (log2)
system.mem_ctrls.writePktSize::3                    0                       # Write request sizes (log2)
system.mem_ctrls.writePktSize::4                    0                       # Write request sizes (log2)
system.mem_ctrls.writePktSize::5                    0                       # Write request sizes (log2)
system.mem_ctrls.writePktSize::6                97640                       # Write request sizes (log2)
system.mem_ctrls.rdQLenPdf::0                   94988                       # What read queue length does an incoming req see
system.mem_ctrls.rdQLenPdf::1                  103539                       # What read queue length does an incoming req see
system.mem_ctrls.rdQLenPdf::2                   14637                       # What read queue length does an incoming req see
system.mem_ctrls.rdQLenPdf::3                    6085                       # What read queue length does an incoming req see
system.mem_ctrls.rdQLenPdf::4                       3                       # What read queue length does an incoming req see
system.mem_ctrls.rdQLenPdf::5                       3                       # What read queue length does an incoming req see
system.mem_ctrls.rdQLenPdf::6                       1                       # What read queue length does an incoming req see
system.mem_ctrls.rdQLenPdf::7                       1                       # What read queue length does an incoming req see
system.mem_ctrls.rdQLenPdf::8                       0                       # What read queue length does an incoming req see
system.mem_ctrls.rdQLenPdf::9                       0                       # What read queue length does an incoming req see
system.mem_ctrls.rdQLenPdf::10                      0                       # What read queue length does an incoming req see
system.mem_ctrls.rdQLenPdf::11                      0                       # What read queue length does an incoming req see
system.mem_ctrls.rdQLenPdf::12                      0                       # What read queue length does an incoming req see
system.mem_ctrls.rdQLenPdf::13                      0                       # What read queue length does an incoming req see
system.mem_ctrls.rdQLenPdf::14                      0                       # What read queue length does an incoming req see
system.mem_ctrls.rdQLenPdf::15                      0                       # What read queue length does an incoming req see
system.mem_ctrls.rdQLenPdf::16                      0                       # What read queue length does an incoming req see
system.mem_ctrls.rdQLenPdf::17                      0                       # What read queue length does an incoming req see
system.mem_ctrls.rdQLenPdf::18                      0                       # What read queue length does an incoming req see
system.mem_ctrls.rdQLenPdf::19                      0                       # What read queue length does an incoming req see
system.mem_ctrls.rdQLenPdf::20                      0                       # What read queue length does an incoming req see
system.mem_ctrls.rdQLenPdf::21                      0                       # What read queue length does an incoming req see
system.mem_ctrls.rdQLenPdf::22                      0                       # What read queue length does an incoming req see
system.mem_ctrls.rdQLenPdf::23                      0                       # What read queue length does an incoming req see
system.mem_ctrls.rdQLenPdf::24                      0                       # What read queue length does an incoming req see
system.mem_ctrls.rdQLenPdf::25                      0                       # What read queue length does an incoming req see
system.mem_ctrls.rdQLenPdf::26                      0                       # What read queue length does an incoming req see
system.mem_ctrls.rdQLenPdf::27                      0                       # What read queue length does an incoming req see
system.mem_ctrls.rdQLenPdf::28                      0                       # What read queue length does an incoming req see
system.mem_ctrls.rdQLenPdf::29                      0                       # What read queue length does an incoming req see
system.mem_ctrls.rdQLenPdf::30                      0                       # What read queue length does an incoming req see
system.mem_ctrls.rdQLenPdf::31                      0                       # What read queue length does an incoming req see
system.mem_ctrls.wrQLenPdf::0                       1                       # What write queue length does an incoming req see
system.mem_ctrls.wrQLenPdf::1                       1                       # What write queue length does an incoming req see
system.mem_ctrls.wrQLenPdf::2                       1                       # What write queue length does an incoming req see
system.mem_ctrls.wrQLenPdf::3                       1                       # What write queue length does an incoming req see
system.mem_ctrls.wrQLenPdf::4                       1                       # What write queue length does an incoming req see
system.mem_ctrls.wrQLenPdf::5                       1                       # What write queue length does an incoming req see
system.mem_ctrls.wrQLenPdf::6                       1                       # What write queue length does an incoming req see
system.mem_ctrls.wrQLenPdf::7                       1                       # What write queue length does an incoming req see
system.mem_ctrls.wrQLenPdf::8                       1                       # What write queue length does an incoming req see
system.mem_ctrls.wrQLenPdf::9                       1                       # What write queue length does an incoming req see
system.mem_ctrls.wrQLenPdf::10                      1                       # What write queue length does an incoming req see
system.mem_ctrls.wrQLenPdf::11                      1                       # What write queue length does an incoming req see
system.mem_ctrls.wrQLenPdf::12                      1                       # What write queue length does an incoming req see
system.mem_ctrls.wrQLenPdf::13                      1                       # What write queue length does an incoming req see
system.mem_ctrls.wrQLenPdf::14                      1                       # What write queue length does an incoming req see
system.mem_ctrls.wrQLenPdf::15                   1274                       # What write queue length does an incoming req see
system.mem_ctrls.wrQLenPdf::16                   1333                       # What write queue length does an incoming req see
system.mem_ctrls.wrQLenPdf::17                   1636                       # What write queue length does an incoming req see
system.mem_ctrls.wrQLenPdf::18                   5600                       # What write queue length does an incoming req see
system.mem_ctrls.wrQLenPdf::19                   5805                       # What write queue length does an incoming req see
system.mem_ctrls.wrQLenPdf::20                   5962                       # What write queue length does an incoming req see
system.mem_ctrls.wrQLenPdf::21                   6107                       # What write queue length does an incoming req see
system.mem_ctrls.wrQLenPdf::22                   6128                       # What write queue length does an incoming req see
system.mem_ctrls.wrQLenPdf::23                   6045                       # What write queue length does an incoming req see
system.mem_ctrls.wrQLenPdf::24                   5994                       # What write queue length does an incoming req see
system.mem_ctrls.wrQLenPdf::25                   5946                       # What write queue length does an incoming req see
system.mem_ctrls.wrQLenPdf::26                   5968                       # What write queue length does an incoming req see
system.mem_ctrls.wrQLenPdf::27                   5952                       # What write queue length does an incoming req see
system.mem_ctrls.wrQLenPdf::28                   5949                       # What write queue length does an incoming req see
system.mem_ctrls.wrQLenPdf::29                   5997                       # What write queue length does an incoming req see
system.mem_ctrls.wrQLenPdf::30                   5964                       # What write queue length does an incoming req see
system.mem_ctrls.wrQLenPdf::31                   5913                       # What write queue length does an incoming req see
system.mem_ctrls.wrQLenPdf::32                   5912                       # What write queue length does an incoming req see
system.mem_ctrls.wrQLenPdf::33                   4136                       # What write queue length does an incoming req see
system.mem_ctrls.wrQLenPdf::34                      2                       # What write queue length does an incoming req see
system.mem_ctrls.wrQLenPdf::35                      2                       # What write queue length does an incoming req see
system.mem_ctrls.wrQLenPdf::36                      0                       # What write queue length does an incoming req see
system.mem_ctrls.wrQLenPdf::37                      0                       # What write queue length does an incoming req see
system.mem_ctrls.wrQLenPdf::38                      0                       # What write queue length does an incoming req see
system.mem_ctrls.wrQLenPdf::39                      0                       # What write queue length does an incoming req see
system.mem_ctrls.wrQLenPdf::40                      0                       # What write queue length does an incoming req see
system.mem_ctrls.wrQLenPdf::41                      0                       # What write queue length does an incoming req see
system.mem_ctrls.wrQLenPdf::42                      0                       # What write queue length does an incoming req see
system.mem_ctrls.wrQLenPdf::43                      0                       # What write queue length does an incoming req see
system.mem_ctrls.wrQLenPdf::44                      0                       # What write queue length does an incoming req see
system.mem_ctrls.wrQLenPdf::45                      0                       # What write queue length does an incoming req see
system.mem_ctrls.wrQLenPdf::46                      0                       # What write queue length does an incoming req see
system.mem_ctrls.wrQLenPdf::47                      0                       # What write queue length does an incoming req see
system.mem_ctrls.wrQLenPdf::48                      0                       # What write queue length does an incoming req see
system.mem_ctrls.wrQLenPdf::49                      0                       # What write queue length does an incoming req see
system.mem_ctrls.wrQLenPdf::50                      0                       # What write queue length does an incoming req see
system.mem_ctrls.wrQLenPdf::51                      0                       # What write queue length does an incoming req see
system.mem_ctrls.wrQLenPdf::52                      0                       # What write queue length does an incoming req see
system.mem_ctrls.wrQLenPdf::53                      0                       # What write queue length does an incoming req see
system.mem_ctrls.wrQLenPdf::54                      0                       # What write queue length does an incoming req see
system.mem_ctrls.wrQLenPdf::55                      0                       # What write queue length does an incoming req see
system.mem_ctrls.wrQLenPdf::56                      0                       # What write queue length does an incoming req see
system.mem_ctrls.wrQLenPdf::57                      0                       # What write queue length does an incoming req see
system.mem_ctrls.wrQLenPdf::58                      0                       # What write queue length does an incoming req see
system.mem_ctrls.wrQLenPdf::59                      0                       # What write queue length does an incoming req see
system.mem_ctrls.wrQLenPdf::60                      0                       # What write queue length does an incoming req see
system.mem_ctrls.wrQLenPdf::61                      0                       # What write queue length does an incoming req see
system.mem_ctrls.wrQLenPdf::62                      0                       # What write queue length does an incoming req see
system.mem_ctrls.wrQLenPdf::63                      0                       # What write queue length does an incoming req see
system.mem_ctrls.bytesPerActivate::samples        50023                       # Bytes accessed per row activation
system.mem_ctrls.bytesPerActivate::mean    405.401995                       # Bytes accessed per row activation
system.mem_ctrls.bytesPerActivate::gmean   258.724343                       # Bytes accessed per row activation
system.mem_ctrls.bytesPerActivate::stdev   383.281356                       # Bytes accessed per row activation
system.mem_ctrls.bytesPerActivate::0-127         1489      2.98%      2.98% # Bytes accessed per row activation
system.mem_ctrls.bytesPerActivate::128-255        27359     54.69%     57.67% # Bytes accessed per row activation
system.mem_ctrls.bytesPerActivate::256-383         2626      5.25%     62.92% # Bytes accessed per row activation
system.mem_ctrls.bytesPerActivate::384-511         2878      5.75%     68.67% # Bytes accessed per row activation
system.mem_ctrls.bytesPerActivate::512-639          984      1.97%     70.64% # Bytes accessed per row activation
system.mem_ctrls.bytesPerActivate::640-767         1102      2.20%     72.84% # Bytes accessed per row activation
system.mem_ctrls.bytesPerActivate::768-895          649      1.30%     74.14% # Bytes accessed per row activation
system.mem_ctrls.bytesPerActivate::896-1023          680      1.36%     75.50% # Bytes accessed per row activation
system.mem_ctrls.bytesPerActivate::1024-1151        12256     24.50%    100.00% # Bytes accessed per row activation
system.mem_ctrls.bytesPerActivate::total        50023                       # Bytes accessed per row activation
system.mem_ctrls.rdPerTurnAround::samples         5912                       # Reads before turning the bus around for writes
system.mem_ctrls.rdPerTurnAround::mean      37.084066                       # Reads before turning the bus around for writes
system.mem_ctrls.rdPerTurnAround::gmean     24.292208                       # Reads before turning the bus around for writes
system.mem_ctrls.rdPerTurnAround::stdev    137.058588                       # Reads before turning the bus around for writes
system.mem_ctrls.rdPerTurnAround::0-511          5892     99.66%     99.66% # Reads before turning the bus around for writes
system.mem_ctrls.rdPerTurnAround::512-1023           12      0.20%     99.86% # Reads before turning the bus around for writes
system.mem_ctrls.rdPerTurnAround::1024-1535            6      0.10%     99.97% # Reads before turning the bus around for writes
system.mem_ctrls.rdPerTurnAround::3072-3583            1      0.02%     99.98% # Reads before turning the bus around for writes
system.mem_ctrls.rdPerTurnAround::8704-9215            1      0.02%    100.00% # Reads before turning the bus around for writes
system.mem_ctrls.rdPerTurnAround::total          5912                       # Reads before turning the bus around for writes
system.mem_ctrls.wrPerTurnAround::samples         5912                       # Writes before turning the bus around for reads
system.mem_ctrls.wrPerTurnAround::mean      16.510318                       # Writes before turning the bus around for reads
system.mem_ctrls.wrPerTurnAround::gmean     16.482829                       # Writes before turning the bus around for reads
system.mem_ctrls.wrPerTurnAround::stdev      0.996303                       # Writes before turning the bus around for reads
system.mem_ctrls.wrPerTurnAround::16             4442     75.14%     75.14% # Writes before turning the bus around for reads
system.mem_ctrls.wrPerTurnAround::17              167      2.82%     77.96% # Writes before turning the bus around for reads
system.mem_ctrls.wrPerTurnAround::18             1235     20.89%     98.85% # Writes before turning the bus around for reads
system.mem_ctrls.wrPerTurnAround::19                3      0.05%     98.90% # Writes before turning the bus around for reads
[...]
system.cpu.icache.ReadReq_avg_miss_latency::total 107426.190476                       # average ReadReq miss latency
system.cpu.icache.ReadReq_mshr_misses::.cpu.inst          420                       # number of ReadReq MSHR misses
system.cpu.icache.ReadReq_mshr_misses::total          420                       # number of ReadReq MSHR misses
system.cpu.icache.ReadReq_mshr_miss_latency::.cpu.inst     44279000                       # number of ReadReq MSHR miss cycles
system.cpu.icache.ReadReq_mshr_miss_latency::total     44279000                       # number of ReadReq MSHR miss cycles
system.cpu.icache.ReadReq_mshr_miss_rate::.cpu.inst     0.000052                       # mshr miss rate for ReadReq accesses
system.cpu.icache.ReadReq_mshr_miss_rate::total     0.000052                       # mshr miss rate for ReadReq accesses
system.cpu.icache.ReadReq_avg_mshr_miss_latency::.cpu.inst 105426.190476                       # average ReadReq mshr miss latency
system.cpu.icache.ReadReq_avg_mshr_miss_latency::total 105426.190476                       # average ReadReq mshr miss latency
system.cpu.icache.tags.pwrStateResidencyTicks::UNDEFINED 154664734000                       # Cumulative time (in ticks) in various power states
system.cpu.icache.tags.tagsinuse           354.461422                       # Cycle average of tags in use
system.cpu.icache.tags.total_refs             8050927                       # Total number of references to valid blocks.
system.cpu.icache.tags.sampled_refs               420                       # Sample count of references to valid blocks.
system.cpu.icache.tags.avg_refs          19168.873810                       # Average number of references to valid blocks.
system.cpu.icache.tags.warmup_cycle            113000                       # Cycle when the warmup percentage was hit.
system.cpu.icache.tags.occ_blocks::.cpu.inst   354.461422                       # Average occupied blocks per requestor
system.cpu.icache.tags.occ_percent::.cpu.inst     0.346154                       # Average percentage of cache occupancy
system.cpu.icache.tags.occ_percent::total     0.346154                       # Average percentage of cache occupancy
system.cpu.icache.tags.occ_task_id_blocks::1024          420                       # Occupied blocks per task id
system.cpu.icache.tags.age_task_id_blocks_1024::4          420                       # Occupied blocks per task id
system.cpu.icache.tags.occ_task_id_percent::1024     0.410156                       # Percentage of cache occupancy per task id
system.cpu.icache.tags.tag_accesses         128815252                       # Number of tag accesses
system.cpu.icache.tags.data_accesses        128815252                       # Number of data accesses
system.cpu.dtb.walker.pwrStateResidencyTicks::UNDEFINED 154664734000                       # Cumulative time (in ticks) in various power states
system.cpu.dtb.stage2_mmu.stage2_tlb.walker.pwrStateResidencyTicks::UNDEFINED 154664734000                       # Cumulative time (in ticks) in various power states
system.cpu.dcache.pwrStateResidencyTicks::UNDEFINED 154664734000                       # Cumulative time (in ticks) in various power states
system.cpu.dcache.demand_hits::.cpu.data     51605340                       # number of demand (read+write) hits
system.cpu.dcache.demand_hits::total         51605340                       # number of demand (read+write) hits
system.cpu.dcache.overall_hits::.cpu.data     51605938                       # number of overall hits
system.cpu.dcache.overall_hits::total        51605938                       # number of overall hits
system.cpu.dcache.demand_misses::.cpu.data       448843                       # number of demand (read+write) misses
system.cpu.dcache.demand_misses::total         448843                       # number of demand (read+write) misses
system.cpu.dcache.overall_misses::.cpu.data       456664                       # number of overall misses
system.cpu.dcache.overall_misses::total        456664                       # number of overall misses
system.cpu.dcache.demand_miss_latency::.cpu.data  23157109000                       # number of demand (read+write) miss cycles
system.cpu.dcache.demand_miss_latency::total  23157109000                       # number of demand (read+write) miss cycles
system.cpu.dcache.overall_miss_latency::.cpu.data  23157109000                       # number of overall miss cycles
system.cpu.dcache.overall_miss_latency::total  23157109000                       # number of overall miss cycles
system.cpu.dcache.demand_accesses::.cpu.data     52054183                       # number of demand (read+write) accesses
system.cpu.dcache.demand_accesses::total     52054183                       # number of demand (read+write) accesses
system.cpu.dcache.overall_accesses::.cpu.data     52062602                       # number of overall (read+write) accesses
system.cpu.dcache.overall_accesses::total     52062602                       # number of overall (read+write) accesses
system.cpu.dcache.demand_miss_rate::.cpu.data     0.008623                       # miss rate for demand accesses
system.cpu.dcache.demand_miss_rate::total     0.008623                       # miss rate for demand accesses
system.cpu.dcache.overall_miss_rate::.cpu.data     0.008771                       # miss rate for overall accesses
system.cpu.dcache.overall_miss_rate::total     0.008771                       # miss rate for overall accesses
system.cpu.dcache.demand_avg_miss_latency::.cpu.data 51592.893283                       # average overall miss latency
system.cpu.dcache.demand_avg_miss_latency::total 51592.893283                       # average overall miss latency
system.cpu.dcache.overall_avg_miss_latency::.cpu.data 50709.293923                       # average overall miss latency
system.cpu.dcache.overall_avg_miss_latency::total 50709.293923                       # average overall miss latency
system.cpu.dcache.blocked_cycles::no_mshrs            0                       # number of cycles access was blocked
system.cpu.dcache.blocked_cycles::no_targets            0                       # number of cycles access was blocked
system.cpu.dcache.blocked::no_mshrs                 0                       # number of cycles access was blocked
system.cpu.dcache.blocked::no_targets               0                       # number of cycles access was blocked
system.cpu.dcache.avg_blocked_cycles::no_mshrs          nan                       # average number of cycles each access was blocked
system.cpu.dcache.avg_blocked_cycles::no_targets          nan                       # average number of cycles each access was blocked
system.cpu.dcache.writebacks::.writebacks       386220                       # number of writebacks
system.cpu.dcache.writebacks::total            386220                       # number of writebacks
system.cpu.dcache.demand_mshr_hits::.cpu.data        30939                       # number of demand (read+write) MSHR hits
system.cpu.dcache.demand_mshr_hits::total        30939                       # number of demand (read+write) MSHR hits
system.cpu.dcache.overall_mshr_hits::.cpu.data        30939                       # number of overall MSHR hits
system.cpu.dcache.overall_mshr_hits::total        30939                       # number of overall MSHR hits
system.cpu.dcache.demand_mshr_misses::.cpu.data       417904                       # number of demand (read+write) MSHR misses
system.cpu.dcache.demand_mshr_misses::total       417904                       # number of demand (read+write) MSHR misses
system.cpu.dcache.overall_mshr_misses::.cpu.data       421859                       # number of overall MSHR misses
system.cpu.dcache.overall_mshr_misses::total       421859                       # number of overall MSHR misses
system.cpu.dcache.demand_mshr_miss_latency::.cpu.data  19398200000                       # number of demand (read+write) MSHR miss cycles
system.cpu.dcache.demand_mshr_miss_latency::total  19398200000                       # number of demand (read+write) MSHR miss cycles
system.cpu.dcache.overall_mshr_miss_latency::.cpu.data  19754907000                       # number of overall MSHR miss cycles
system.cpu.dcache.overall_mshr_miss_latency::total  19754907000                       # number of overall MSHR miss cycles
system.cpu.dcache.demand_mshr_miss_rate::.cpu.data     0.008028                       # mshr miss rate for demand accesses
system.cpu.dcache.demand_mshr_miss_rate::total     0.008028                       # mshr miss rate for demand accesses
system.cpu.dcache.overall_mshr_miss_rate::.cpu.data     0.008103                       # mshr miss rate for overall accesses
system.cpu.dcache.overall_mshr_miss_rate::total     0.008103                       # mshr miss rate for overall accesses
system.cpu.dcache.demand_avg_mshr_miss_latency::.cpu.data 46417.837589                       # average overall mshr miss latency
system.cpu.dcache.demand_avg_mshr_miss_latency::total 46417.837589                       # average overall mshr miss latency
system.cpu.dcache.overall_avg_mshr_miss_latency::.cpu.data 46828.222226                       # average overall mshr miss latency
system.cpu.dcache.overall_avg_mshr_miss_latency::total 46828.222226                       # average overall mshr miss latency
system.cpu.dcache.replacements                 420834                       # number of replacements
system.cpu.dcache.ReadReq_hits::.cpu.data     40891594                       # number of ReadReq hits
system.cpu.dcache.ReadReq_hits::total        40891594                       # number of ReadReq hits
system.cpu.dcache.ReadReq_misses::.cpu.data       212497                       # number of ReadReq misses
system.cpu.dcache.ReadReq_misses::total        212497                       # number of ReadReq misses
system.cpu.dcache.ReadReq_miss_latency::.cpu.data   7831853000                       # number of ReadReq miss cycles
system.cpu.dcache.ReadReq_miss_latency::total   7831853000                       # number of ReadReq miss cycles
system.cpu.dcache.ReadReq_accesses::.cpu.data     41104091                       # number of ReadReq accesses(hits+misses)
system.cpu.dcache.ReadReq_accesses::total     41104091                       # number of ReadReq accesses(hits+misses)
system.cpu.dcache.ReadReq_miss_rate::.cpu.data     0.005170                       # miss rate for ReadReq accesses
system.cpu.dcache.ReadReq_miss_rate::total     0.005170                       # miss rate for ReadReq accesses
system.cpu.dcache.ReadReq_avg_miss_latency::.cpu.data 36856.299148                       # average ReadReq miss latency
system.cpu.dcache.ReadReq_avg_miss_latency::total 36856.299148                       # average ReadReq miss latency
system.cpu.dcache.ReadReq_mshr_hits::.cpu.data         1822                       # number of ReadReq MSHR hits
system.cpu.dcache.ReadReq_mshr_hits::total         1822                       # number of ReadReq MSHR hits
system.cpu.dcache.ReadReq_mshr_misses::.cpu.data       210675                       # number of ReadReq MSHR misses
system.cpu.dcache.ReadReq_mshr_misses::total       210675                       # number of ReadReq MSHR misses
system.cpu.dcache.ReadReq_mshr_miss_latency::.cpu.data   7288580000                       # number of ReadReq MSHR miss cycles
system.cpu.dcache.ReadReq_mshr_miss_latency::total   7288580000                       # number of ReadReq MSHR miss cycles
system.cpu.dcache.ReadReq_mshr_miss_rate::.cpu.data     0.005125                       # mshr miss rate for ReadReq accesses
system.cpu.dcache.ReadReq_mshr_miss_rate::total     0.005125                       # mshr miss rate for ReadReq accesses
system.cpu.dcache.ReadReq_avg_mshr_miss_latency::.cpu.data 34596.321348                       # average ReadReq mshr miss latency
system.cpu.dcache.ReadReq_avg_mshr_miss_latency::total 34596.321348                       # average ReadReq mshr miss latency
system.cpu.dcache.WriteReq_hits::.cpu.data     10713746                       # number of WriteReq hits
system.cpu.dcache.WriteReq_hits::total       10713746                       # number of WriteReq hits
system.cpu.dcache.WriteReq_misses::.cpu.data       236346                       # number of WriteReq misses
system.cpu.dcache.WriteReq_misses::total       236346                       # number of WriteReq misses
system.cpu.dcache.WriteReq_miss_latency::.cpu.data  15325256000                       # number of WriteReq miss cycles
system.cpu.dcache.WriteReq_miss_latency::total  15325256000                       # number of WriteReq miss cycles
system.cpu.dcache.WriteReq_accesses::.cpu.data     10950092                       # number of WriteReq accesses(hits+misses)
system.cpu.dcache.WriteReq_accesses::total     10950092                       # number of WriteReq accesses(hits+misses)
system.cpu.dcache.WriteReq_miss_rate::.cpu.data     0.021584                       # miss rate for WriteReq accesses
system.cpu.dcache.WriteReq_miss_rate::total     0.021584                       # miss rate for WriteReq accesses
system.cpu.dcache.WriteReq_avg_miss_latency::.cpu.data 64842.459784                       # average WriteReq miss latency
system.cpu.dcache.WriteReq_avg_miss_latency::total 64842.459784                       # average WriteReq miss latency
system.cpu.dcache.WriteReq_mshr_hits::.cpu.data        29117                       # number of WriteReq MSHR hits
system.cpu.dcache.WriteReq_mshr_hits::total        29117                       # number of WriteReq MSHR hits
system.cpu.dcache.WriteReq_mshr_misses::.cpu.data       207229                       # number of WriteReq MSHR misses
system.cpu.dcache.WriteReq_mshr_misses::total       207229                       # number of WriteReq MSHR misses
system.cpu.dcache.WriteReq_mshr_miss_latency::.cpu.data  12109620000                       # number of WriteReq MSHR miss cycles
system.cpu.dcache.WriteReq_mshr_miss_latency::total  12109620000                       # number of WriteReq MSHR miss cycles
system.cpu.dcache.WriteReq_mshr_miss_rate::.cpu.data     0.018925                       # mshr miss rate for WriteReq accesses
system.cpu.dcache.WriteReq_mshr_miss_rate::total     0.018925                       # mshr miss rate for WriteReq accesses
system.cpu.dcache.WriteReq_avg_mshr_miss_latency::.cpu.data 58435.933195                       # average WriteReq mshr miss latency
system.cpu.dcache.WriteReq_avg_mshr_miss_latency::total 58435.933195                       # average WriteReq mshr miss latency
system.cpu.dcache.SoftPFReq_hits::.cpu.data          598                       # number of SoftPFReq hits
system.cpu.dcache.SoftPFReq_hits::total           598                       # number of SoftPFReq hits
system.cpu.dcache.SoftPFReq_misses::.cpu.data         7821                       # number of SoftPFReq misses
system.cpu.dcache.SoftPFReq_misses::total         7821                       # number of SoftPFReq misses
system.cpu.dcache.SoftPFReq_accesses::.cpu.data         8419                       # number of SoftPFReq accesses(hits+misses)
system.cpu.dcache.SoftPFReq_accesses::total         8419                       # number of SoftPFReq accesses(hits+misses)
system.cpu.dcache.SoftPFReq_miss_rate::.cpu.data     0.928970                       # miss rate for SoftPFReq accesses
system.cpu.dcache.SoftPFReq_miss_rate::total     0.928970                       # miss rate for SoftPFReq accesses
system.cpu.dcache.SoftPFReq_mshr_misses::.cpu.data         3955                       # number of SoftPFReq MSHR misses
system.cpu.dcache.SoftPFReq_mshr_misses::total         3955                       # number of SoftPFReq MSHR misses
system.cpu.dcache.SoftPFReq_mshr_miss_latency::.cpu.data    356707000                       # number of SoftPFReq MSHR miss cycles
system.cpu.dcache.SoftPFReq_mshr_miss_latency::total    356707000                       # number of SoftPFReq MSHR miss cycles
system.cpu.dcache.SoftPFReq_mshr_miss_rate::.cpu.data     0.469771                       # mshr miss rate for SoftPFReq accesses
system.cpu.dcache.SoftPFReq_mshr_miss_rate::total     0.469771                       # mshr miss rate for SoftPFReq accesses
system.cpu.dcache.SoftPFReq_avg_mshr_miss_latency::.cpu.data 90191.403287                       # average SoftPFReq mshr miss latency
system.cpu.dcache.SoftPFReq_avg_mshr_miss_latency::total 90191.403287                       # average SoftPFReq mshr miss latency
system.cpu.dcache.LoadLockedReq_hits::.cpu.data           38                       # number of LoadLockedReq hits
system.cpu.dcache.LoadLockedReq_hits::total           38                       # number of LoadLockedReq hits
system.cpu.dcache.LoadLockedReq_accesses::.cpu.data           38                       # number of LoadLockedReq accesses(hits+misses)
system.cpu.dcache.LoadLockedReq_accesses::total           38                       # number of LoadLockedReq accesses(hits+misses)
system.cpu.dcache.StoreCondReq_hits::.cpu.data           38                       # number of StoreCondReq hits
system.cpu.dcache.StoreCondReq_hits::total           38                       # number of StoreCondReq hits
system.cpu.dcache.StoreCondReq_accesses::.cpu.data           38                       # number of StoreCondReq accesses(hits+misses)
system.cpu.dcache.StoreCondReq_accesses::total           38                       # number of StoreCondReq accesses(hits+misses)
system.cpu.dcache.tags.pwrStateResidencyTicks::UNDEFINED 154664734000                       # Cumulative time (in ticks) in various power states
system.cpu.dcache.tags.tagsinuse          1011.683261                       # Cycle average of tags in use
system.cpu.dcache.tags.total_refs            52027872                       # Total number of references to valid blocks.
system.cpu.dcache.tags.sampled_refs            421858                       # Sample count of references to valid blocks.
system.cpu.dcache.tags.avg_refs            123.330296                       # Average number of references to valid blocks.
system.cpu.dcache.tags.warmup_cycle            233000                       # Cycle when the warmup percentage was hit.
system.cpu.dcache.tags.occ_blocks::.cpu.data  1011.683261                       # Average occupied blocks per requestor
system.cpu.dcache.tags.occ_percent::.cpu.data     0.987972                       # Average percentage of cache occupancy
system.cpu.dcache.tags.occ_percent::total     0.987972                       # Average percentage of cache occupancy
system.cpu.dcache.tags.occ_task_id_blocks::1024         1024                       # Occupied blocks per task id
system.cpu.dcache.tags.age_task_id_blocks_1024::0          168                       # Occupied blocks per task id
system.cpu.dcache.tags.age_task_id_blocks_1024::1          296                       # Occupied blocks per task id
system.cpu.dcache.tags.age_task_id_blocks_1024::2          549                       # Occupied blocks per task id
system.cpu.dcache.tags.age_task_id_blocks_1024::3           10                       # Occupied blocks per task id
system.cpu.dcache.tags.age_task_id_blocks_1024::4            1                       # Occupied blocks per task id
system.cpu.dcache.tags.occ_task_id_percent::1024            1                       # Percentage of cache occupancy per task id
system.cpu.dcache.tags.tag_accesses         833424706                       # Number of tag accesses
system.cpu.dcache.tags.data_accesses        833424706                       # Number of data accesses
system.cpu.itb.walker.pwrStateResidencyTicks::UNDEFINED 154664734000                       # Cumulative time (in ticks) in various power states
system.cpu.itb.stage2_mmu.stage2_tlb.walker.pwrStateResidencyTicks::UNDEFINED 154664734000                       # Cumulative time (in ticks) in various power states

---------- End Simulation Statistics   ----------
